
---------- Begin Simulation Statistics ----------
sim_seconds                                  0.006495                       # Number of seconds simulated
sim_ticks                                  6494783500                       # Number of ticks simulated
final_tick                                 6494783500                       # Number of ticks from beginning of simulation (restored from checkpoints and never reset)
sim_freq                                 1000000000000                       # Frequency of simulated ticks
host_inst_rate                                  76224                       # Simulator instruction rate (inst/s)
host_op_rate                                   360902                       # Simulator op (including micro ops) rate (op/s)
host_tick_rate                               96454217                       # Simulator tick rate (ticks/s)
host_mem_usage                                 660984                       # Number of bytes of host memory used
host_seconds                                    67.34                       # Real time elapsed on the host
sim_insts                                     5132577                       # Number of instructions simulated
sim_ops                                      24301499                       # Number of ops (including micro ops) simulated
system.clk_domain.voltage_domain.voltage            1                       # Voltage in Volts
system.clk_domain.clock                           500                       # Clock period in ticks
system.mem_ctrl.pwrStateResidencyTicks::UNDEFINED   6494783500                       # Cumulative time (in ticks) in various power states
system.mem_ctrl.bytes_read::.cpu.inst           32576                       # Number of bytes read from this memory
system.mem_ctrl.bytes_read::.cpu.data           16384                       # Number of bytes read from this memory
system.mem_ctrl.bytes_read::total               48960                       # Number of bytes read from this memory
system.mem_ctrl.bytes_inst_read::.cpu.inst        32576                       # Number of instructions bytes read from this memory
system.mem_ctrl.bytes_inst_read::total          32576                       # Number of instructions bytes read from this memory
system.mem_ctrl.num_reads::.cpu.inst              509                       # Number of read requests responded to by this memory
system.mem_ctrl.num_reads::.cpu.data              256                       # Number of read requests responded to by this memory
system.mem_ctrl.num_reads::total                  765                       # Number of read requests responded to by this memory
system.mem_ctrl.bw_read::.cpu.inst            5015718                       # Total read bandwidth from this memory (bytes/s)
system.mem_ctrl.bw_read::.cpu.data            2522640                       # Total read bandwidth from this memory (bytes/s)
system.mem_ctrl.bw_read::total                7538358                       # Total read bandwidth from this memory (bytes/s)
system.mem_ctrl.bw_inst_read::.cpu.inst       5015718                       # Instruction read bandwidth from this memory (bytes/s)
system.mem_ctrl.bw_inst_read::total           5015718                       # Instruction read bandwidth from this memory (bytes/s)
system.mem_ctrl.bw_total::.cpu.inst           5015718                       # Total bandwidth to/from this memory (bytes/s)
system.mem_ctrl.bw_total::.cpu.data           2522640                       # Total bandwidth to/from this memory (bytes/s)
system.mem_ctrl.bw_total::total               7538358                       # Total bandwidth to/from this memory (bytes/s)
system.mem_ctrl.avgPriority_.cpu.inst::samples       509.00                       # Average QoS priority value for accepted requests
system.mem_ctrl.avgPriority_.cpu.data::samples       256.00                       # Average QoS priority value for accepted requests
system.mem_ctrl.priorityMinLatency       0.000000018750                       # per QoS priority minimum request to response latency (s)
system.mem_ctrl.priorityMaxLatency       0.000001099750                       # per QoS priority maximum request to response latency (s)
system.mem_ctrl.numReadWriteTurnArounds             0                       # Number of turnarounds from READ to WRITE
system.mem_ctrl.numWriteReadTurnArounds             0                       # Number of turnarounds from WRITE to READ
system.mem_ctrl.numStayReadState                 1554                       # Number of times bus staying in READ state
system.mem_ctrl.numStayWriteState                   0                       # Number of times bus staying in WRITE state
system.mem_ctrl.readReqs                          765                       # Number of read requests accepted
system.mem_ctrl.writeReqs                           0                       # Number of write requests accepted
system.mem_ctrl.readBursts                        765                       # Number of DRAM read bursts, including those serviced by the write queue
system.mem_ctrl.writeBursts                         0                       # Number of DRAM write bursts, including those merged in the write queue
system.mem_ctrl.bytesReadDRAM                   48960                       # Total number of bytes read from DRAM
system.mem_ctrl.bytesReadWrQ                        0                       # Total number of bytes read from write queue
system.mem_ctrl.bytesWritten                        0                       # Total number of bytes written to DRAM
system.mem_ctrl.bytesReadSys                    48960                       # Total read bytes from the system interface side
system.mem_ctrl.bytesWrittenSys                     0                       # Total written bytes from the system interface side
system.mem_ctrl.servicedByWrQ                       0                       # Number of DRAM read bursts serviced by the write queue
system.mem_ctrl.mergedWrBursts                      0                       # Number of DRAM write bursts merged with an existing one
system.mem_ctrl.neitherReadNorWriteReqs             0                       # Number of requests that are neither read nor write
system.mem_ctrl.perBankRdBursts::0                161                       # Per bank write bursts
system.mem_ctrl.perBankRdBursts::1                 20                       # Per bank write bursts
system.mem_ctrl.perBankRdBursts::2                 23                       # Per bank write bursts
system.mem_ctrl.perBankRdBursts::3                  8                       # Per bank write bursts
system.mem_ctrl.perBankRdBursts::4                  4                       # Per bank write bursts
system.mem_ctrl.perBankRdBursts::5                 16                       # Per bank write bursts
system.mem_ctrl.perBankRdBursts::6                 59                       # Per bank write bursts
system.mem_ctrl.perBankRdBursts::7                 44                       # Per bank write bursts
system.mem_ctrl.perBankRdBursts::8                  4                       # Per bank write bursts
system.mem_ctrl.perBankRdBursts::9                 29                       # Per bank write bursts
system.mem_ctrl.perBankRdBursts::10                48                       # Per bank write bursts
system.mem_ctrl.perBankRdBursts::11                21                       # Per bank write bursts
system.mem_ctrl.perBankRdBursts::12                98                       # Per bank write bursts
system.mem_ctrl.perBankRdBursts::13                62                       # Per bank write bursts
system.mem_ctrl.perBankRdBursts::14               113                       # Per bank write bursts
system.mem_ctrl.perBankRdBursts::15                55                       # Per bank write bursts
system.mem_ctrl.perBankWrBursts::0                  0                       # Per bank write bursts
system.mem_ctrl.perBankWrBursts::1                  0                       # Per bank write bursts
system.mem_ctrl.perBankWrBursts::2                  0                       # Per bank write bursts
system.mem_ctrl.perBankWrBursts::3                  0                       # Per bank write bursts
system.mem_ctrl.perBankWrBursts::4                  0                       # Per bank write bursts
system.mem_ctrl.perBankWrBursts::5                  0                       # Per bank write bursts
system.mem_ctrl.perBankWrBursts::6                  0                       # Per bank write bursts
system.mem_ctrl.perBankWrBursts::7                  0                       # Per bank write bursts
system.mem_ctrl.perBankWrBursts::8                  0                       # Per bank write bursts
system.mem_ctrl.perBankWrBursts::9                  0                       # Per bank write bursts
system.mem_ctrl.perBankWrBursts::10                 0                       # Per bank write bursts
system.mem_ctrl.perBankWrBursts::11                 0                       # Per bank write bursts
system.mem_ctrl.perBankWrBursts::12                 0                       # Per bank write bursts
system.mem_ctrl.perBankWrBursts::13                 0                       # Per bank write bursts
system.mem_ctrl.perBankWrBursts::14                 0                       # Per bank write bursts
system.mem_ctrl.perBankWrBursts::15                 0                       # Per bank write bursts
system.mem_ctrl.numRdRetry                          0                       # Number of times read queue was full causing retry
system.mem_ctrl.numWrRetry                          0                       # Number of times write queue was full causing retry
system.mem_ctrl.totGap                     6494698500                       # Total gap between requests
system.mem_ctrl.readPktSize::0                      0                       # Read request sizes (log2)
system.mem_ctrl.readPktSize::1                      0                       # Read request sizes (log2)
system.mem_ctrl.readPktSize::2                      0                       # Read request sizes (log2)
system.mem_ctrl.readPktSize::3                      0                       # Read request sizes (log2)
system.mem_ctrl.readPktSize::4                      0                       # Read request sizes (log2)
system.mem_ctrl.readPktSize::5                      0                       # Read request sizes (log2)
system.mem_ctrl.readPktSize::6                    765                       # Read request sizes (log2)
system.mem_ctrl.writePktSize::0                     0                       # Write request sizes (log2)
system.mem_ctrl.writePktSize::1                     0                       # Write request sizes (log2)
system.mem_ctrl.writePktSize::2                     0                       # Write request sizes (log2)
system.mem_ctrl.writePktSize::3                     0                       # Write request sizes (log2)
system.mem_ctrl.writePktSize::4                     0                       # Write request sizes (log2)
system.mem_ctrl.writePktSize::5                     0                       # Write request sizes (log2)
system.mem_ctrl.writePktSize::6                     0                       # Write request sizes (log2)
system.mem_ctrl.rdQLenPdf::0                      512                       # What read queue length does an incoming req see
system.mem_ctrl.rdQLenPdf::1                      195                       # What read queue length does an incoming req see
system.mem_ctrl.rdQLenPdf::2                       47                       # What read queue length does an incoming req see
system.mem_ctrl.rdQLenPdf::3                        9                       # What read queue length does an incoming req see
system.mem_ctrl.rdQLenPdf::4                        2                       # What read queue length does an incoming req see
system.mem_ctrl.rdQLenPdf::5                        0                       # What read queue length does an incoming req see
system.mem_ctrl.rdQLenPdf::6                        0                       # What read queue length does an incoming req see
system.mem_ctrl.rdQLenPdf::7                        0                       # What read queue length does an incoming req see
system.mem_ctrl.rdQLenPdf::8                        0                       # What read queue length does an incoming req see
system.mem_ctrl.rdQLenPdf::9                        0                       # What read queue length does an incoming req see
system.mem_ctrl.rdQLenPdf::10                       0                       # What read queue length does an incoming req see
system.mem_ctrl.rdQLenPdf::11                       0                       # What read queue length does an incoming req see
system.mem_ctrl.rdQLenPdf::12                       0                       # What read queue length does an incoming req see
system.mem_ctrl.rdQLenPdf::13                       0                       # What read queue length does an incoming req see
system.mem_ctrl.rdQLenPdf::14                       0                       # What read queue length does an incoming req see
system.mem_ctrl.rdQLenPdf::15                       0                       # What read queue length does an incoming req see
system.mem_ctrl.rdQLenPdf::16                       0                       # What read queue length does an incoming req see
system.mem_ctrl.rdQLenPdf::17                       0                       # What read queue length does an incoming req see
system.mem_ctrl.rdQLenPdf::18                       0                       # What read queue length does an incoming req see
system.mem_ctrl.rdQLenPdf::19                       0                       # What read queue length does an incoming req see
system.mem_ctrl.rdQLenPdf::20                       0                       # What read queue length does an incoming req see
system.mem_ctrl.rdQLenPdf::21                       0                       # What read queue length does an incoming req see
system.mem_ctrl.rdQLenPdf::22                       0                       # What read queue length does an incoming req see
system.mem_ctrl.rdQLenPdf::23                       0                       # What read queue length does an incoming req see
system.mem_ctrl.rdQLenPdf::24                       0                       # What read queue length does an incoming req see
system.mem_ctrl.rdQLenPdf::25                       0                       # What read queue length does an incoming req see
system.mem_ctrl.rdQLenPdf::26                       0                       # What read queue length does an incoming req see
system.mem_ctrl.rdQLenPdf::27                       0                       # What read queue length does an incoming req see
system.mem_ctrl.rdQLenPdf::28                       0                       # What read queue length does an incoming req see
system.mem_ctrl.rdQLenPdf::29                       0                       # What read queue length does an incoming req see
system.mem_ctrl.rdQLenPdf::30                       0                       # What read queue length does an incoming req see
system.mem_ctrl.rdQLenPdf::31                       0                       # What read queue length does an incoming req see
system.mem_ctrl.wrQLenPdf::0                        0                       # What write queue length does an incoming req see
system.mem_ctrl.wrQLenPdf::1                        0                       # What write queue length does an incoming req see
system.mem_ctrl.wrQLenPdf::2                        0                       # What write queue length does an incoming req see
system.mem_ctrl.wrQLenPdf::3                        0                       # What write queue length does an incoming req see
system.mem_ctrl.wrQLenPdf::4                        0                       # What write queue length does an incoming req see
system.mem_ctrl.wrQLenPdf::5                        0                       # What write queue length does an incoming req see
system.mem_ctrl.wrQLenPdf::6                        0                       # What write queue length does an incoming req see
system.mem_ctrl.wrQLenPdf::7                        0                       # What write queue length does an incoming req see
system.mem_ctrl.wrQLenPdf::8                        0                       # What write queue length does an incoming req see
system.mem_ctrl.wrQLenPdf::9                        0                       # What write queue length does an incoming req see
system.mem_ctrl.wrQLenPdf::10                       0                       # What write queue length does an incoming req see
system.mem_ctrl.wrQLenPdf::11                       0                       # What write queue length does an incoming req see
system.mem_ctrl.wrQLenPdf::12                       0                       # What write queue length does an incoming req see
system.mem_ctrl.wrQLenPdf::13                       0                       # What write queue length does an incoming req see
system.mem_ctrl.wrQLenPdf::14                       0                       # What write queue length does an incoming req see
system.mem_ctrl.wrQLenPdf::15                       0                       # What write queue length does an incoming req see
system.mem_ctrl.wrQLenPdf::16                       0                       # What write queue length does an incoming req see
system.mem_ctrl.wrQLenPdf::17                       0                       # What write queue length does an incoming req see
system.mem_ctrl.wrQLenPdf::18                       0                       # What write queue length does an incoming req see
system.mem_ctrl.wrQLenPdf::19                       0                       # What write queue length does an incoming req see
system.mem_ctrl.wrQLenPdf::20                       0                       # What write queue length does an incoming req see
system.mem_ctrl.wrQLenPdf::21                       0                       # What write queue length does an incoming req see
system.mem_ctrl.wrQLenPdf::22                       0                       # What write queue length does an incoming req see
system.mem_ctrl.wrQLenPdf::23                       0                       # What write queue length does an incoming req see
system.mem_ctrl.wrQLenPdf::24                       0                       # What write queue length does an incoming req see
system.mem_ctrl.wrQLenPdf::25                       0                       # What write queue length does an incoming req see
system.mem_ctrl.wrQLenPdf::26                       0                       # What write queue length does an incoming req see
system.mem_ctrl.wrQLenPdf::27                       0                       # What write queue length does an incoming req see
system.mem_ctrl.wrQLenPdf::28                       0                       # What write queue length does an incoming req see
system.mem_ctrl.wrQLenPdf::29                       0                       # What write queue length does an incoming req see
system.mem_ctrl.wrQLenPdf::30                       0                       # What write queue length does an incoming req see
system.mem_ctrl.wrQLenPdf::31                       0                       # What write queue length does an incoming req see
system.mem_ctrl.wrQLenPdf::32                       0                       # What write queue length does an incoming req see
system.mem_ctrl.wrQLenPdf::33                       0                       # What write queue length does an incoming req see
system.mem_ctrl.wrQLenPdf::34                       0                       # What write queue length does an incoming req see
system.mem_ctrl.wrQLenPdf::35                       0                       # What write queue length does an incoming req see
system.mem_ctrl.wrQLenPdf::36                       0                       # What write queue length does an incoming req see
system.mem_ctrl.wrQLenPdf::37                       0                       # What write queue length does an incoming req see
system.mem_ctrl.wrQLenPdf::38                       0                       # What write queue length does an incoming req see
system.mem_ctrl.wrQLenPdf::39                       0                       # What write queue length does an incoming req see
system.mem_ctrl.wrQLenPdf::40                       0                       # What write queue length does an incoming req see
system.mem_ctrl.wrQLenPdf::41                       0                       # What write queue length does an incoming req see
system.mem_ctrl.wrQLenPdf::42                       0                       # What write queue length does an incoming req see
system.mem_ctrl.wrQLenPdf::43                       0                       # What write queue length does an incoming req see
system.mem_ctrl.wrQLenPdf::44                       0                       # What write queue length does an incoming req see
system.mem_ctrl.wrQLenPdf::45                       0                       # What write queue length does an incoming req see
system.mem_ctrl.wrQLenPdf::46                       0                       # What write queue length does an incoming req see
system.mem_ctrl.wrQLenPdf::47                       0                       # What write queue length does an incoming req see
system.mem_ctrl.wrQLenPdf::48                       0                       # What write queue length does an incoming req see
system.mem_ctrl.wrQLenPdf::49                       0                       # What write queue length does an incoming req see
system.mem_ctrl.wrQLenPdf::50                       0                       # What write queue length does an incoming req see
system.mem_ctrl.wrQLenPdf::51                       0                       # What write queue length does an incoming req see
system.mem_ctrl.wrQLenPdf::52                       0                       # What write queue length does an incoming req see
system.mem_ctrl.wrQLenPdf::53                       0                       # What write queue length does an incoming req see
system.mem_ctrl.wrQLenPdf::54                       0                       # What write queue length does an incoming req see
system.mem_ctrl.wrQLenPdf::55                       0                       # What write queue length does an incoming req see
system.mem_ctrl.wrQLenPdf::56                       0                       # What write queue length does an incoming req see
system.mem_ctrl.wrQLenPdf::57                       0                       # What write queue length does an incoming req see
system.mem_ctrl.wrQLenPdf::58                       0                       # What write queue length does an incoming req see
system.mem_ctrl.wrQLenPdf::59                       0                       # What write queue length does an incoming req see
system.mem_ctrl.wrQLenPdf::60                       0                       # What write queue length does an incoming req see
system.mem_ctrl.wrQLenPdf::61                       0                       # What write queue length does an incoming req see
system.mem_ctrl.wrQLenPdf::62                       0                       # What write queue length does an incoming req see
system.mem_ctrl.wrQLenPdf::63                       0                       # What write queue length does an incoming req see
system.mem_ctrl.bytesPerActivate::samples          164                       # Bytes accessed per row activation
system.mem_ctrl.bytesPerActivate::mean     280.975610                       # Bytes accessed per row activation
system.mem_ctrl.bytesPerActivate::gmean    169.142034                       # Bytes accessed per row activation
system.mem_ctrl.bytesPerActivate::stdev    299.307379                       # Bytes accessed per row activation
system.mem_ctrl.bytesPerActivate::0-127            68     41.46%     41.46% # Bytes accessed per row activation
system.mem_ctrl.bytesPerActivate::128-255           35     21.34%     62.80% # Bytes accessed per row activation
system.mem_ctrl.bytesPerActivate::256-383           19     11.59%     74.39% # Bytes accessed per row activation
system.mem_ctrl.bytesPerActivate::384-511            9      5.49%     79.88% # Bytes accessed per row activation
system.mem_ctrl.bytesPerActivate::512-639            9      5.49%     85.37% # Bytes accessed per row activation
system.mem_ctrl.bytesPerActivate::640-767            3      1.83%     87.20% # Bytes accessed per row activation
system.mem_ctrl.bytesPerActivate::768-895            3      1.83%     89.02% # Bytes accessed per row activation
system.mem_ctrl.bytesPerActivate::896-1023            8      4.88%     93.90% # Bytes accessed per row activation
system.mem_ctrl.bytesPerActivate::1024-1151           10      6.10%    100.00% # Bytes accessed per row activation
system.mem_ctrl.bytesPerActivate::total           164                       # Bytes accessed per row activation
system.mem_ctrl.masterReadBytes::.cpu.inst        32576                       # Per-master bytes read from memory
system.mem_ctrl.masterReadBytes::.cpu.data        16384                       # Per-master bytes read from memory
system.mem_ctrl.masterReadRate::.cpu.inst 5015717.613989749923                       # Per-master bytes read from memory rate (Bytes/sec)
system.mem_ctrl.masterReadRate::.cpu.data 2522639.900159874465                       # Per-master bytes read from memory rate (Bytes/sec)
system.mem_ctrl.masterReadAccesses::.cpu.inst          509                       # Per-master read serviced memory accesses
system.mem_ctrl.masterReadAccesses::.cpu.data          256                       # Per-master read serviced memory accesses
system.mem_ctrl.masterReadTotalLat::.cpu.inst     19773000                       # Per-master read total memory access latency
system.mem_ctrl.masterReadTotalLat::.cpu.data     14077750                       # Per-master read total memory access latency
system.mem_ctrl.masterReadAvgLat::.cpu.inst     38846.76                       # Per-master read average memory access latency
system.mem_ctrl.masterReadAvgLat::.cpu.data     54991.21                       # Per-master read average memory access latency
system.mem_ctrl.totQLat                      19507000                       # Total ticks spent queuing
system.mem_ctrl.totMemAccLat                 33850750                       # Total ticks spent from burst creation until serviced by the DRAM
system.mem_ctrl.totBusLat                     3825000                       # Total ticks spent in databus transfers
system.mem_ctrl.avgQLat                      25499.35                       # Average queueing delay per DRAM burst
system.mem_ctrl.avgBusLat                     5000.00                       # Average bus latency per DRAM burst
system.mem_ctrl.avgMemAccLat                 44249.35                       # Average memory access latency per DRAM burst
system.mem_ctrl.avgRdBW                          7.54                       # Average DRAM read bandwidth in MiByte/s
system.mem_ctrl.avgWrBW                          0.00                       # Average achieved write bandwidth in MiByte/s
system.mem_ctrl.avgRdBWSys                       7.54                       # Average system read bandwidth in MiByte/s
system.mem_ctrl.avgWrBWSys                       0.00                       # Average system write bandwidth in MiByte/s
system.mem_ctrl.peakBW                       12800.00                       # Theoretical peak bandwidth in MiByte/s
system.mem_ctrl.busUtil                          0.06                       # Data bus utilization in percentage
system.mem_ctrl.busUtilRead                      0.06                       # Data bus utilization in percentage for reads
system.mem_ctrl.busUtilWrite                     0.00                       # Data bus utilization in percentage for writes
system.mem_ctrl.avgRdQLen                        1.00                       # Average read queue length when enqueuing
system.mem_ctrl.avgWrQLen                        0.00                       # Average write queue length when enqueuing
system.mem_ctrl.readRowHits                       590                       # Number of row buffer hits during reads
system.mem_ctrl.writeRowHits                        0                       # Number of row buffer hits during writes
system.mem_ctrl.readRowHitRate                  77.12                       # Row buffer hit rate for reads
system.mem_ctrl.writeRowHitRate                   nan                       # Row buffer hit rate for writes
system.mem_ctrl.avgGap                     8489801.96                       # Average gap between requests
system.mem_ctrl.pageHitRate                     77.12                       # Row buffer hit rate, read and write combined
system.mem_ctrl_0.actEnergy                    499800                       # Energy for activate commands per rank (pJ)
system.mem_ctrl_0.preEnergy                    250470                       # Energy for precharge commands per rank (pJ)
system.mem_ctrl_0.readEnergy                  2391900                       # Energy for read commands per rank (pJ)
system.mem_ctrl_0.writeEnergy                       0                       # Energy for write commands per rank (pJ)
system.mem_ctrl_0.refreshEnergy          19668480.000000                       # Energy for refresh commands per rank (pJ)
system.mem_ctrl_0.actBackEnergy               7704120                       # Energy for active background per rank (pJ)
system.mem_ctrl_0.preBackEnergy               1702560                       # Energy for precharge background per rank (pJ)
system.mem_ctrl_0.actPowerDownEnergy         61877490                       # Energy for active power-down per rank (pJ)
system.mem_ctrl_0.prePowerDownEnergy         38630880                       # Energy for precharge power-down per rank (pJ)
system.mem_ctrl_0.selfRefreshEnergy        1504096920                       # Energy for self refresh per rank (pJ)
system.mem_ctrl_0.totalEnergy              1636822620                       # Total energy per rank (pJ)
system.mem_ctrl_0.averagePower             252.021121                       # Core power per rank (mW)
system.mem_ctrl_0.totalIdleTime            6473424750                       # Total Idle time Per DRAM Rank
system.mem_ctrl_0.memoryStateTime::IDLE       3702500                       # Time in different power states
system.mem_ctrl_0.memoryStateTime::REF        8320000                       # Time in different power states
system.mem_ctrl_0.memoryStateTime::SREF    6237159500                       # Time in different power states
system.mem_ctrl_0.memoryStateTime::PRE_PDN    100601250                       # Time in different power states
system.mem_ctrl_0.memoryStateTime::ACT        9294500                       # Time in different power states
system.mem_ctrl_0.memoryStateTime::ACT_PDN    135705750                       # Time in different power states
system.mem_ctrl_1.actEnergy                    749700                       # Energy for activate commands per rank (pJ)
system.mem_ctrl_1.preEnergy                    371910                       # Energy for precharge commands per rank (pJ)
system.mem_ctrl_1.readEnergy                  3070200                       # Energy for read commands per rank (pJ)
system.mem_ctrl_1.writeEnergy                       0                       # Energy for write commands per rank (pJ)
system.mem_ctrl_1.refreshEnergy          7375680.000000                       # Energy for refresh commands per rank (pJ)
system.mem_ctrl_1.actBackEnergy               6317310                       # Energy for active background per rank (pJ)
system.mem_ctrl_1.preBackEnergy                489600                       # Energy for precharge background per rank (pJ)
system.mem_ctrl_1.actPowerDownEnergy         25771410                       # Energy for active power-down per rank (pJ)
system.mem_ctrl_1.prePowerDownEnergy         11045760                       # Energy for precharge power-down per rank (pJ)
system.mem_ctrl_1.selfRefreshEnergy        1536306420                       # Energy for self refresh per rank (pJ)
system.mem_ctrl_1.totalEnergy              1591497990                       # Total energy per rank (pJ)
system.mem_ctrl_1.averagePower             245.042501                       # Core power per rank (mW)
system.mem_ctrl_1.totalIdleTime            6479504750                       # Total Idle time Per DRAM Rank
system.mem_ctrl_1.memoryStateTime::IDLE        980000                       # Time in different power states
system.mem_ctrl_1.memoryStateTime::REF        3120000                       # Time in different power states
system.mem_ctrl_1.memoryStateTime::SREF    6394373000                       # Time in different power states
system.mem_ctrl_1.memoryStateTime::PRE_PDN     28762750                       # Time in different power states
system.mem_ctrl_1.memoryStateTime::ACT       11032500                       # Time in different power states
system.mem_ctrl_1.memoryStateTime::ACT_PDN     56515250                       # Time in different power states
system.pwrStateResidencyTicks::UNDEFINED   6494783500                       # Cumulative time (in ticks) in various power states
system.cpu.branchPred.lookups                 1550343                       # Number of BP lookups
system.cpu.branchPred.condPredicted           1550343                       # Number of conditional branches predicted
system.cpu.branchPred.condIncorrect             10776                       # Number of conditional branches incorrect
system.cpu.branchPred.BTBLookups              1171474                       # Number of BTB lookups
system.cpu.branchPred.BTBHits                       0                       # Number of BTB hits
system.cpu.branchPred.BTBCorrect                    0                       # Number of correct BTB predictions (this stat may not work properly.
system.cpu.branchPred.BTBHitPct              0.000000                       # BTB Hit Percentage
system.cpu.branchPred.usedRAS                    1986                       # Number of times the RAS was used to get a target.
system.cpu.branchPred.RASInCorrect                276                       # Number of incorrect RAS predictions.
system.cpu.branchPred.indirectLookups         1171474                       # Number of indirect predictor lookups.
system.cpu.branchPred.indirectHits            1021887                       # Number of indirect target hits.
system.cpu.branchPred.indirectMisses           149587                       # Number of indirect misses.
system.cpu.branchPredindirectMispredicted         1967                       # Number of mispredicted indirect branches.
system.cpu.dtb.walker.pwrStateResidencyTicks::UNDEFINED   6494783500                       # Cumulative time (in ticks) in various power states
system.cpu.dtb.rdAccesses                     2574692                       # TLB accesses on read requests
system.cpu.dtb.wrAccesses                      535393                       # TLB accesses on write requests
system.cpu.dtb.rdMisses                            65                       # TLB misses on read requests
system.cpu.dtb.wrMisses                            27                       # TLB misses on write requests
system.cpu.apic_clk_domain.clock                 8000                       # Clock period in ticks
system.cpu.interrupts.pwrStateResidencyTicks::UNDEFINED   6494783500                       # Cumulative time (in ticks) in various power states
system.cpu.itb.walker.pwrStateResidencyTicks::UNDEFINED   6494783500                       # Cumulative time (in ticks) in various power states
system.cpu.itb.rdAccesses                           0                       # TLB accesses on read requests
system.cpu.itb.wrAccesses                     1040747                       # TLB accesses on write requests
system.cpu.itb.rdMisses                             0                       # TLB misses on read requests
system.cpu.itb.wrMisses                           147                       # TLB misses on write requests
system.cpu.workload.numSyscalls                    11                       # Number of system calls
system.cpu.pwrStateResidencyTicks::ON      6494783500                       # Cumulative time (in ticks) in various power states
system.cpu.numCycles                         12989568                       # number of cpu cycles simulated
system.cpu.numWorkItemsStarted                      0                       # number of work items this cpu started
system.cpu.numWorkItemsCompleted                    0                       # number of work items this cpu completed
system.cpu.fetch.icacheStallCycles              35306                       # Number of cycles fetch is stalled on an Icache miss
system.cpu.fetch.Insts                        5223746                       # Number of instructions fetch has processed
system.cpu.fetch.Branches                     1550343                       # Number of branches that fetch encountered
system.cpu.fetch.predictedBranches            1023873                       # Number of branches that fetch has predicted taken
system.cpu.fetch.Cycles                      12910347                       # Number of cycles fetch has run and was not squashing or blocked
system.cpu.fetch.SquashCycles                   21798                       # Number of cycles fetch has spent squashing
system.cpu.fetch.MiscStallCycles                   80                       # Number of cycles fetch has spent waiting on interrupts, or bad addresses, or out of MSHRs
system.cpu.fetch.PendingTrapStallCycles           529                       # Number of stall cycles due to pending traps
system.cpu.fetch.PendingQuiesceStallCycles            5                       # Number of stall cycles due to pending quiesce instructions
system.cpu.fetch.CacheLines                   1040646                       # Number of cache lines fetched
system.cpu.fetch.IcacheSquashes                   214                       # Number of outstanding Icache misses that were squashed
system.cpu.fetch.rateDist::samples           12957166                       # Number of instructions fetched each cycle (Total)
system.cpu.fetch.rateDist::mean              1.905253                       # Number of instructions fetched each cycle (Total)
system.cpu.fetch.rateDist::stdev             0.318389                       # Number of instructions fetched each cycle (Total)
system.cpu.fetch.rateDist::underflows               0      0.00%      0.00% # Number of instructions fetched each cycle (Total)
system.cpu.fetch.rateDist::0                   101076      0.78%      0.78% # Number of instructions fetched each cycle (Total)
system.cpu.fetch.rateDist::1                  1025503      7.91%      8.69% # Number of instructions fetched each cycle (Total)
system.cpu.fetch.rateDist::2                 11830587     91.31%    100.00% # Number of instructions fetched each cycle (Total)
system.cpu.fetch.rateDist::overflows                0      0.00%    100.00% # Number of instructions fetched each cycle (Total)
system.cpu.fetch.rateDist::min_value                0                       # Number of instructions fetched each cycle (Total)
system.cpu.fetch.rateDist::max_value                2                       # Number of instructions fetched each cycle (Total)
system.cpu.fetch.rateDist::total             12957166                       # Number of instructions fetched each cycle (Total)
system.cpu.fetch.branchRate                  0.119353                       # Number of branch fetches per cycle
system.cpu.fetch.rate                        0.402149                       # Number of inst fetches per cycle
system.cpu.decode.IdleCycles                    81278                       # Number of cycles decode is idle
system.cpu.decode.BlockedCycles                 99837                       # Number of cycles decode is blocked
system.cpu.decode.RunCycles                  12696391                       # Number of cycles decode is running
system.cpu.decode.UnblockCycles                 68761                       # Number of cycles decode is unblocking
system.cpu.decode.SquashCycles                  10899                       # Number of cycles decode is squashing
system.cpu.decode.DecodedInsts               24642419                       # Number of instructions handled by decode
system.cpu.rename.SquashCycles                  10899                       # Number of cycles rename is squashing
system.cpu.rename.IdleCycles                   117832                       # Number of cycles rename is idle
system.cpu.rename.BlockCycles                   17328                       # Number of cycles rename is blocking
system.cpu.rename.serializeStallCycles            951                       # count of cycles rename stalled for serializing inst
system.cpu.rename.RunCycles                  12723131                       # Number of cycles rename is running
system.cpu.rename.UnblockCycles                 87025                       # Number of cycles rename is unblocking
system.cpu.rename.RenamedInsts               24621731                       # Number of instructions processed by rename
system.cpu.rename.ROBFullEvents                    11                       # Number of times rename has blocked due to ROB full
system.cpu.rename.IQFullEvents                    548                       # Number of times rename has blocked due to IQ full
system.cpu.rename.SQFullEvents                  21552                       # Number of times rename has blocked due to SQ full
system.cpu.rename.FullRegisterEvents            41549                       # Number of times there has been no free registers
system.cpu.rename.RenamedOperands            35814889                       # Number of destination operands rename has renamed
system.cpu.rename.RenameLookups              90890310                       # Number of register rename lookups that rename has made
system.cpu.rename.int_rename_lookups         54668176                       # Number of integer rename lookups
system.cpu.rename.fp_rename_lookups             18597                       # Number of floating rename lookups
system.cpu.rename.CommittedMaps              35346661                       # Number of HB maps that are committed
system.cpu.rename.UndoneMaps                   468228                       # Number of HB maps that are undone due to squashing
system.cpu.rename.serializingInsts                 21                       # count of serializing insts renamed
system.cpu.rename.tempSerializingInsts             20                       # count of temporary serializing insts renamed
system.cpu.rename.skidInsts                     97995                       # count of insts added to the skid buffer
system.cpu.memDep0.insertedLoads              2582280                       # Number of loads inserted to the mem dependence unit.
system.cpu.memDep0.insertedStores              539829                       # Number of stores inserted to the mem dependence unit.
system.cpu.memDep0.conflictingLoads           1558843                       # Number of conflicting loads.
system.cpu.memDep0.conflictingStores             3178                       # Number of conflicting stores.
system.cpu.iq.iqInstsAdded                   24601075                       # Number of instructions added to the IQ (excludes non-spec)
system.cpu.iq.iqNonSpecInstsAdded                  92                       # Number of non-speculative instructions added to the IQ
system.cpu.iq.iqInstsIssued                  24415754                       # Number of instructions issued
system.cpu.iq.iqSquashedInstsIssued             14550                       # Number of squashed instructions issued
system.cpu.iq.iqSquashedInstsExamined          299667                       # Number of squashed instructions iterated over during squash; mainly for profiling
system.cpu.iq.iqSquashedOperandsExamined       793223                       # Number of squashed operands that are examined and possibly removed from graph
system.cpu.iq.iqSquashedNonSpecRemoved             81                       # Number of squashed non-spec instructions that were removed
system.cpu.iq.issued_per_cycle::samples      12957166                       # Number of insts issued each cycle
system.cpu.iq.issued_per_cycle::mean         1.884344                       # Number of insts issued each cycle
system.cpu.iq.issued_per_cycle::stdev        0.355972                       # Number of insts issued each cycle
system.cpu.iq.issued_per_cycle::underflows            0      0.00%      0.00% # Number of insts issued each cycle
system.cpu.iq.issued_per_cycle::0              158310      1.22%      1.22% # Number of insts issued each cycle
system.cpu.iq.issued_per_cycle::1             1181958      9.12%     10.34% # Number of insts issued each cycle
system.cpu.iq.issued_per_cycle::2            11616898     89.66%    100.00% # Number of insts issued each cycle
system.cpu.iq.issued_per_cycle::overflows            0      0.00%    100.00% # Number of insts issued each cycle
system.cpu.iq.issued_per_cycle::min_value            0                       # Number of insts issued each cycle
system.cpu.iq.issued_per_cycle::max_value            2                       # Number of insts issued each cycle
system.cpu.iq.issued_per_cycle::total        12957166                       # Number of insts issued each cycle
system.cpu.iq.fu_full::No_OpClass                   0      0.00%      0.00% # attempts to use FU when none available
system.cpu.iq.fu_full::IntAlu                       0      0.00%      0.00% # attempts to use FU when none available
system.cpu.iq.fu_full::IntMult                      0      0.00%      0.00% # attempts to use FU when none available
system.cpu.iq.fu_full::IntDiv                       0      0.00%      0.00% # attempts to use FU when none available
system.cpu.iq.fu_full::FloatAdd                     0      0.00%      0.00% # attempts to use FU when none available
system.cpu.iq.fu_full::FloatCmp                     0      0.00%      0.00% # attempts to use FU when none available
system.cpu.iq.fu_full::FloatCvt                     0      0.00%      0.00% # attempts to use FU when none available
system.cpu.iq.fu_full::FloatMult                    0      0.00%      0.00% # attempts to use FU when none available
system.cpu.iq.fu_full::FloatMultAcc                 0      0.00%      0.00% # attempts to use FU when none available
system.cpu.iq.fu_full::FloatDiv                     0      0.00%      0.00% # attempts to use FU when none available
system.cpu.iq.fu_full::FloatMisc                    0      0.00%      0.00% # attempts to use FU when none available
system.cpu.iq.fu_full::FloatSqrt                    0      0.00%      0.00% # attempts to use FU when none available
system.cpu.iq.fu_full::SimdAdd                    297      0.34%      0.34% # attempts to use FU when none available
system.cpu.iq.fu_full::SimdAddAcc                   0      0.00%      0.34% # attempts to use FU when none available
system.cpu.iq.fu_full::SimdAlu                     59      0.07%      0.40% # attempts to use FU when none available
system.cpu.iq.fu_full::SimdCmp                      0      0.00%      0.40% # attempts to use FU when none available
system.cpu.iq.fu_full::SimdCvt                    692      0.79%      1.19% # attempts to use FU when none available
system.cpu.iq.fu_full::SimdMisc                   473      0.54%      1.73% # attempts to use FU when none available
system.cpu.iq.fu_full::SimdMult                     0      0.00%      1.73% # attempts to use FU when none available
system.cpu.iq.fu_full::SimdMultAcc                  0      0.00%      1.73% # attempts to use FU when none available
system.cpu.iq.fu_full::SimdShift                    0      0.00%      1.73% # attempts to use FU when none available
system.cpu.iq.fu_full::SimdShiftAcc                 0      0.00%      1.73% # attempts to use FU when none available
system.cpu.iq.fu_full::SimdSqrt                     0      0.00%      1.73% # attempts to use FU when none available
system.cpu.iq.fu_full::SimdFloatAdd                 0      0.00%      1.73% # attempts to use FU when none available
system.cpu.iq.fu_full::SimdFloatAlu                 0      0.00%      1.73% # attempts to use FU when none available
system.cpu.iq.fu_full::SimdFloatCmp                 0      0.00%      1.73% # attempts to use FU when none available
system.cpu.iq.fu_full::SimdFloatCvt                 0      0.00%      1.73% # attempts to use FU when none available
system.cpu.iq.fu_full::SimdFloatDiv                 0      0.00%      1.73% # attempts to use FU when none available
system.cpu.iq.fu_full::SimdFloatMisc                0      0.00%      1.73% # attempts to use FU when none available
system.cpu.iq.fu_full::SimdFloatMult                0      0.00%      1.73% # attempts to use FU when none available
system.cpu.iq.fu_full::SimdFloatMultAcc             0      0.00%      1.73% # attempts to use FU when none available
system.cpu.iq.fu_full::SimdFloatSqrt                0      0.00%      1.73% # attempts to use FU when none available
system.cpu.iq.fu_full::SimdAes                      0      0.00%      1.73% # attempts to use FU when none available
system.cpu.iq.fu_full::SimdAesMix                   0      0.00%      1.73% # attempts to use FU when none available
system.cpu.iq.fu_full::SimdSha1Hash                 0      0.00%      1.73% # attempts to use FU when none available
system.cpu.iq.fu_full::SimdSha1Hash2                0      0.00%      1.73% # attempts to use FU when none available
system.cpu.iq.fu_full::SimdSha256Hash               0      0.00%      1.73% # attempts to use FU when none available
system.cpu.iq.fu_full::SimdSha256Hash2              0      0.00%      1.73% # attempts to use FU when none available
system.cpu.iq.fu_full::SimdShaSigma2                0      0.00%      1.73% # attempts to use FU when none available
system.cpu.iq.fu_full::SimdShaSigma3                0      0.00%      1.73% # attempts to use FU when none available
system.cpu.iq.fu_full::MemRead                  81926     93.20%     94.93% # attempts to use FU when none available
system.cpu.iq.fu_full::MemWrite                  4455      5.07%    100.00% # attempts to use FU when none available
system.cpu.iq.fu_full::FloatMemRead                 0      0.00%    100.00% # attempts to use FU when none available
system.cpu.iq.fu_full::FloatMemWrite                0      0.00%    100.00% # attempts to use FU when none available
system.cpu.iq.fu_full::IprAccess                    0      0.00%    100.00% # attempts to use FU when none available
system.cpu.iq.fu_full::InstPrefetch                 0      0.00%    100.00% # attempts to use FU when none available
system.cpu.iq.FU_type_0::No_OpClass            502254      2.06%      2.06% # Type of FU issued
system.cpu.iq.FU_type_0::IntAlu              17288036     70.81%     72.86% # Type of FU issued
system.cpu.iq.FU_type_0::IntMult                  479      0.00%     72.87% # Type of FU issued
system.cpu.iq.FU_type_0::IntDiv               3506734     14.36%     87.23% # Type of FU issued
system.cpu.iq.FU_type_0::FloatAdd                 346      0.00%     87.23% # Type of FU issued
system.cpu.iq.FU_type_0::FloatCmp                   0      0.00%     87.23% # Type of FU issued
system.cpu.iq.FU_type_0::FloatCvt                   0      0.00%     87.23% # Type of FU issued
system.cpu.iq.FU_type_0::FloatMult                  0      0.00%     87.23% # Type of FU issued
system.cpu.iq.FU_type_0::FloatMultAcc               0      0.00%     87.23% # Type of FU issued
system.cpu.iq.FU_type_0::FloatDiv                   0      0.00%     87.23% # Type of FU issued
system.cpu.iq.FU_type_0::FloatMisc                  0      0.00%     87.23% # Type of FU issued
system.cpu.iq.FU_type_0::FloatSqrt                  0      0.00%     87.23% # Type of FU issued
system.cpu.iq.FU_type_0::SimdAdd                  374      0.00%     87.23% # Type of FU issued
system.cpu.iq.FU_type_0::SimdAddAcc                 0      0.00%     87.23% # Type of FU issued
system.cpu.iq.FU_type_0::SimdAlu                 1413      0.01%     87.24% # Type of FU issued
system.cpu.iq.FU_type_0::SimdCmp                    0      0.00%     87.24% # Type of FU issued
system.cpu.iq.FU_type_0::SimdCvt                 1453      0.01%     87.24% # Type of FU issued
system.cpu.iq.FU_type_0::SimdMisc                3239      0.01%     87.26% # Type of FU issued
system.cpu.iq.FU_type_0::SimdMult                   0      0.00%     87.26% # Type of FU issued
system.cpu.iq.FU_type_0::SimdMultAcc                0      0.00%     87.26% # Type of FU issued
system.cpu.iq.FU_type_0::SimdShift                186      0.00%     87.26% # Type of FU issued
system.cpu.iq.FU_type_0::SimdShiftAcc               0      0.00%     87.26% # Type of FU issued
system.cpu.iq.FU_type_0::SimdSqrt                   0      0.00%     87.26% # Type of FU issued
system.cpu.iq.FU_type_0::SimdFloatAdd               0      0.00%     87.26% # Type of FU issued
system.cpu.iq.FU_type_0::SimdFloatAlu               0      0.00%     87.26% # Type of FU issued
system.cpu.iq.FU_type_0::SimdFloatCmp               0      0.00%     87.26% # Type of FU issued
system.cpu.iq.FU_type_0::SimdFloatCvt               0      0.00%     87.26% # Type of FU issued
system.cpu.iq.FU_type_0::SimdFloatDiv               0      0.00%     87.26% # Type of FU issued
system.cpu.iq.FU_type_0::SimdFloatMisc              0      0.00%     87.26% # Type of FU issued
system.cpu.iq.FU_type_0::SimdFloatMult              0      0.00%     87.26% # Type of FU issued
system.cpu.iq.FU_type_0::SimdFloatMultAcc            0      0.00%     87.26% # Type of FU issued
system.cpu.iq.FU_type_0::SimdFloatSqrt              0      0.00%     87.26% # Type of FU issued
system.cpu.iq.FU_type_0::SimdAes                    0      0.00%     87.26% # Type of FU issued
system.cpu.iq.FU_type_0::SimdAesMix                 0      0.00%     87.26% # Type of FU issued
system.cpu.iq.FU_type_0::SimdSha1Hash               0      0.00%     87.26% # Type of FU issued
system.cpu.iq.FU_type_0::SimdSha1Hash2              0      0.00%     87.26% # Type of FU issued
system.cpu.iq.FU_type_0::SimdSha256Hash             0      0.00%     87.26% # Type of FU issued
system.cpu.iq.FU_type_0::SimdSha256Hash2            0      0.00%     87.26% # Type of FU issued
system.cpu.iq.FU_type_0::SimdShaSigma2              0      0.00%     87.26% # Type of FU issued
system.cpu.iq.FU_type_0::SimdShaSigma3              0      0.00%     87.26% # Type of FU issued
system.cpu.iq.FU_type_0::MemRead              2573957     10.54%     97.80% # Type of FU issued
system.cpu.iq.FU_type_0::MemWrite              535213      2.19%     99.99% # Type of FU issued
system.cpu.iq.FU_type_0::FloatMemRead            1075      0.00%    100.00% # Type of FU issued
system.cpu.iq.FU_type_0::FloatMemWrite            995      0.00%    100.00% # Type of FU issued
system.cpu.iq.FU_type_0::IprAccess                  0      0.00%    100.00% # Type of FU issued
system.cpu.iq.FU_type_0::InstPrefetch               0      0.00%    100.00% # Type of FU issued
system.cpu.iq.FU_type_0::total               24415754                       # Type of FU issued
system.cpu.iq.rate                           1.879643                       # Inst issue rate
system.cpu.iq.fu_busy_cnt                       87902                       # FU busy when requested
system.cpu.iq.fu_busy_rate                   0.003600                       # FU busy rate (busy events/executed inst)
system.cpu.iq.int_inst_queue_reads           61868085                       # Number of integer instruction queue reads
system.cpu.iq.int_inst_queue_writes          24889172                       # Number of integer instruction queue writes
system.cpu.iq.int_inst_queue_wakeup_accesses     24387855                       # Number of integer instruction queue wakeup accesses
system.cpu.iq.fp_inst_queue_reads               23041                       # Number of floating instruction queue reads
system.cpu.iq.fp_inst_queue_writes              11699                       # Number of floating instruction queue writes
system.cpu.iq.fp_inst_queue_wakeup_accesses        10452                       # Number of floating instruction queue wakeup accesses
system.cpu.iq.vec_inst_queue_reads                  0                       # Number of vector instruction queue reads
system.cpu.iq.vec_inst_queue_writes                 0                       # Number of vector instruction queue writes
system.cpu.iq.vec_inst_queue_wakeup_accesses            0                       # Number of vector instruction queue wakeup accesses
system.cpu.iq.int_alu_accesses               23989277                       # Number of integer alu accesses
system.cpu.iq.fp_alu_accesses                   12125                       # Number of floating point alu accesses
system.cpu.iq.vec_alu_accesses                      0                       # Number of vector alu accesses
system.cpu.iew.lsq.thread0.forwLoads          1013743                       # Number of loads that had data forwarded from stores
system.cpu.iew.lsq.thread0.invAddrLoads             0                       # Number of loads ignored due to an invalid address
system.cpu.iew.lsq.thread0.squashedLoads        40808                       # Number of loads squashed
system.cpu.iew.lsq.thread0.ignoredResponses          309                       # Number of memory responses ignored because the instruction is squashed
system.cpu.iew.lsq.thread0.memOrderViolation           37                       # Number of memory ordering violations
system.cpu.iew.lsq.thread0.squashedStores        11078                       # Number of stores squashed
system.cpu.iew.lsq.thread0.invAddrSwpfs             0                       # Number of software prefetches ignored due to an invalid address
system.cpu.iew.lsq.thread0.blockedLoads             0                       # Number of blocked loads due to partial load-store forwarding
system.cpu.iew.lsq.thread0.rescheduledLoads            0                       # Number of loads that were rescheduled
system.cpu.iew.lsq.thread0.cacheBlocked            11                       # Number of times an access to memory failed due to the cache being blocked
system.cpu.iew.iewIdleCycles                        0                       # Number of cycles IEW is idle
system.cpu.iew.iewSquashCycles                  10899                       # Number of cycles IEW is squashing
system.cpu.iew.iewBlockCycles                   14874                       # Number of cycles IEW is blocking
system.cpu.iew.iewUnblockCycles                   830                       # Number of cycles IEW is unblocking
system.cpu.iew.iewDispatchedInsts            24601167                       # Number of instructions dispatched to IQ
system.cpu.iew.iewDispSquashedInsts                 0                       # Number of squashed instructions skipped by dispatch
system.cpu.iew.iewDispLoadInsts               2582280                       # Number of dispatched load instructions
system.cpu.iew.iewDispStoreInsts               539829                       # Number of dispatched store instructions
system.cpu.iew.iewDispNonSpecInsts                 41                       # Number of dispatched non-speculative instructions
system.cpu.iew.iewIQFullEvents                      9                       # Number of times the IQ has become full, causing a stall
system.cpu.iew.iewLSQFullEvents                   705                       # Number of times the LSQ has become full, causing a stall
system.cpu.iew.memOrderViolationEvents             37                       # Number of memory order violations
system.cpu.iew.predictedTakenIncorrect           7513                       # Number of branches that were predicted taken incorrectly
system.cpu.iew.predictedNotTakenIncorrect         3610                       # Number of branches that were predicted not taken incorrectly
system.cpu.iew.branchMispredicts                11123                       # Number of branch mispredicts detected at execute
system.cpu.iew.iewExecutedInsts              24408254                       # Number of executed instructions
system.cpu.iew.iewExecLoadInsts               2574686                       # Number of load instructions executed
system.cpu.iew.iewExecSquashedInsts              7500                       # Number of squashed instructions skipped in execute
system.cpu.iew.exec_swp                             0                       # number of swp insts executed
system.cpu.iew.exec_nop                             0                       # number of nop insts executed
system.cpu.iew.exec_refs                      3110067                       # number of memory reference insts executed
system.cpu.iew.exec_branches                  1531520                       # Number of branches executed
system.cpu.iew.exec_stores                     535381                       # Number of stores executed
system.cpu.iew.exec_rate                     1.879066                       # Inst execution rate
system.cpu.iew.wb_sent                       24406846                       # cumulative count of insts sent to commit
system.cpu.iew.wb_count                      24398307                       # cumulative count of insts written-back
system.cpu.iew.wb_producers                  21779861                       # num instructions producing a value
system.cpu.iew.wb_consumers                  63773361                       # num instructions consuming a value
system.cpu.iew.wb_rate                       1.878300                       # insts written-back per cycle
system.cpu.iew.wb_fanout                     0.341520                       # average fanout of values written-back
system.cpu.commit.commitSquashedInsts          278962                       # The number of squashed insts skipped by commit
system.cpu.commit.commitNonSpecStalls              11                       # The number of times commit has been forced to stall to communicate backwards
system.cpu.commit.branchMispredicts             10861                       # The number of times a branch was mispredicted
system.cpu.commit.committed_per_cycle::samples     12932639                       # Number of insts commited each cycle
system.cpu.commit.committed_per_cycle::mean     1.879083                       # Number of insts commited each cycle
system.cpu.commit.committed_per_cycle::stdev     0.373168                       # Number of insts commited each cycle
system.cpu.commit.committed_per_cycle::underflows            0      0.00%      0.00% # Number of insts commited each cycle
system.cpu.commit.committed_per_cycle::0       213116      1.65%      1.65% # Number of insts commited each cycle
system.cpu.commit.committed_per_cycle::1      1137547      8.80%     10.44% # Number of insts commited each cycle
system.cpu.commit.committed_per_cycle::2     11581976     89.56%    100.00% # Number of insts commited each cycle
system.cpu.commit.committed_per_cycle::overflows            0      0.00%    100.00% # Number of insts commited each cycle
system.cpu.commit.committed_per_cycle::min_value            0                       # Number of insts commited each cycle
system.cpu.commit.committed_per_cycle::max_value            2                       # Number of insts commited each cycle
system.cpu.commit.committed_per_cycle::total     12932639                       # Number of insts commited each cycle
system.cpu.commit.committedInsts              5132577                       # Number of instructions committed
system.cpu.commit.committedOps               24301499                       # Number of ops (including micro ops) committed
system.cpu.commit.swp_count                         0                       # Number of s/w prefetches committed
system.cpu.commit.refs                        3070223                       # Number of memory references committed
system.cpu.commit.loads                       2541472                       # Number of loads committed
system.cpu.commit.membars                           0                       # Number of memory barriers committed
system.cpu.commit.branches                    1530142                       # Number of branches committed
system.cpu.commit.vec_insts                         0                       # Number of committed Vector instructions.
system.cpu.commit.fp_insts                      10343                       # Number of committed floating point instructions.
system.cpu.commit.int_insts                  23791918                       # Number of committed integer instructions.
system.cpu.commit.function_calls                 1819                       # Number of function calls committed.
system.cpu.commit.op_class_0::No_OpClass       501944      2.07%      2.07% # Class of committed instruction
system.cpu.commit.op_class_0::IntAlu         17216319     70.84%     72.91% # Class of committed instruction
system.cpu.commit.op_class_0::IntMult             479      0.00%     72.91% # Class of committed instruction
system.cpu.commit.op_class_0::IntDiv          3505526     14.43%     87.34% # Class of committed instruction
system.cpu.commit.op_class_0::FloatAdd            346      0.00%     87.34% # Class of committed instruction
system.cpu.commit.op_class_0::FloatCmp              0      0.00%     87.34% # Class of committed instruction
system.cpu.commit.op_class_0::FloatCvt              0      0.00%     87.34% # Class of committed instruction
system.cpu.commit.op_class_0::FloatMult             0      0.00%     87.34% # Class of committed instruction
system.cpu.commit.op_class_0::FloatMultAcc            0      0.00%     87.34% # Class of committed instruction
system.cpu.commit.op_class_0::FloatDiv              0      0.00%     87.34% # Class of committed instruction
system.cpu.commit.op_class_0::FloatMisc             0      0.00%     87.34% # Class of committed instruction
system.cpu.commit.op_class_0::FloatSqrt             0      0.00%     87.34% # Class of committed instruction
system.cpu.commit.op_class_0::SimdAdd             374      0.00%     87.34% # Class of committed instruction
system.cpu.commit.op_class_0::SimdAddAcc            0      0.00%     87.34% # Class of committed instruction
system.cpu.commit.op_class_0::SimdAlu            1412      0.01%     87.35% # Class of committed instruction
system.cpu.commit.op_class_0::SimdCmp               0      0.00%     87.35% # Class of committed instruction
system.cpu.commit.op_class_0::SimdCvt            1452      0.01%     87.35% # Class of committed instruction
system.cpu.commit.op_class_0::SimdMisc           3238      0.01%     87.37% # Class of committed instruction
system.cpu.commit.op_class_0::SimdMult              0      0.00%     87.37% # Class of committed instruction
system.cpu.commit.op_class_0::SimdMultAcc            0      0.00%     87.37% # Class of committed instruction
system.cpu.commit.op_class_0::SimdShift           186      0.00%     87.37% # Class of committed instruction
system.cpu.commit.op_class_0::SimdShiftAcc            0      0.00%     87.37% # Class of committed instruction
system.cpu.commit.op_class_0::SimdSqrt              0      0.00%     87.37% # Class of committed instruction
system.cpu.commit.op_class_0::SimdFloatAdd            0      0.00%     87.37% # Class of committed instruction
system.cpu.commit.op_class_0::SimdFloatAlu            0      0.00%     87.37% # Class of committed instruction
system.cpu.commit.op_class_0::SimdFloatCmp            0      0.00%     87.37% # Class of committed instruction
system.cpu.commit.op_class_0::SimdFloatCvt            0      0.00%     87.37% # Class of committed instruction
system.cpu.commit.op_class_0::SimdFloatDiv            0      0.00%     87.37% # Class of committed instruction
system.cpu.commit.op_class_0::SimdFloatMisc            0      0.00%     87.37% # Class of committed instruction
system.cpu.commit.op_class_0::SimdFloatMult            0      0.00%     87.37% # Class of committed instruction
system.cpu.commit.op_class_0::SimdFloatMultAcc            0      0.00%     87.37% # Class of committed instruction
system.cpu.commit.op_class_0::SimdFloatSqrt            0      0.00%     87.37% # Class of committed instruction
system.cpu.commit.op_class_0::SimdAes               0      0.00%     87.37% # Class of committed instruction
system.cpu.commit.op_class_0::SimdAesMix            0      0.00%     87.37% # Class of committed instruction
system.cpu.commit.op_class_0::SimdSha1Hash            0      0.00%     87.37% # Class of committed instruction
system.cpu.commit.op_class_0::SimdSha1Hash2            0      0.00%     87.37% # Class of committed instruction
system.cpu.commit.op_class_0::SimdSha256Hash            0      0.00%     87.37% # Class of committed instruction
system.cpu.commit.op_class_0::SimdSha256Hash2            0      0.00%     87.37% # Class of committed instruction
system.cpu.commit.op_class_0::SimdShaSigma2            0      0.00%     87.37% # Class of committed instruction
system.cpu.commit.op_class_0::SimdShaSigma3            0      0.00%     87.37% # Class of committed instruction
system.cpu.commit.op_class_0::MemRead         2540408     10.45%     97.82% # Class of committed instruction
system.cpu.commit.op_class_0::MemWrite         528000      2.17%     99.99% # Class of committed instruction
system.cpu.commit.op_class_0::FloatMemRead         1064      0.00%    100.00% # Class of committed instruction
system.cpu.commit.op_class_0::FloatMemWrite          751      0.00%    100.00% # Class of committed instruction
system.cpu.commit.op_class_0::IprAccess             0      0.00%    100.00% # Class of committed instruction
system.cpu.commit.op_class_0::InstPrefetch            0      0.00%    100.00% # Class of committed instruction
system.cpu.commit.op_class_0::total          24301499                       # Class of committed instruction
system.cpu.commit.bw_lim_events              11581976                       # number cycles where commit BW limit reached
system.cpu.rob.rob_reads                     25931124                       # The number of ROB reads
system.cpu.rob.rob_writes                    49185457                       # The number of ROB writes
system.cpu.timesIdled                             350                       # Number of times that the entire CPU went into an idle state and unscheduled itself
system.cpu.idleCycles                           32402                       # Total number of cycles that the CPU has spent unscheduled due to idling
system.cpu.committedInsts                     5132577                       # Number of Instructions Simulated
system.cpu.committedOps                      24301499                       # Number of Ops (including micro ops) Simulated
system.cpu.cpi                               2.530808                       # CPI: Cycles Per Instruction
system.cpu.cpi_total                         2.530808                       # CPI: Total CPI of All Threads
system.cpu.ipc                               0.395131                       # IPC: Instructions Per Cycle
system.cpu.ipc_total                         0.395131                       # IPC: Total IPC of All Threads
system.cpu.int_regfile_reads                 54137081                       # number of integer regfile reads
system.cpu.int_regfile_writes                29343816                       # number of integer regfile writes
system.cpu.fp_regfile_reads                     17989                       # number of floating regfile reads
system.cpu.fp_regfile_writes                     8876                       # number of floating regfile writes
system.cpu.cc_regfile_reads                  30691133                       # number of cc regfile reads
system.cpu.cc_regfile_writes                  6130111                       # number of cc regfile writes
system.cpu.misc_regfile_reads                 5179554                       # number of misc regfile reads
system.cpu.dcache.tags.pwrStateResidencyTicks::UNDEFINED   6494783500                       # Cumulative time (in ticks) in various power states
system.cpu.dcache.tags.tagsinuse           238.974334                       # Cycle average of tags in use
system.cpu.dcache.tags.total_refs             2089557                       # Total number of references to valid blocks.
system.cpu.dcache.tags.sampled_refs               256                       # Sample count of references to valid blocks.
system.cpu.dcache.tags.avg_refs           8162.332031                       # Average number of references to valid blocks.
system.cpu.dcache.tags.warmup_cycle            167500                       # Cycle when the warmup percentage was hit.
system.cpu.dcache.tags.occ_blocks::.cpu.data   238.974334                       # Average occupied blocks per requestor
system.cpu.dcache.tags.occ_percent::.cpu.data     0.466747                       # Average percentage of cache occupancy
system.cpu.dcache.tags.occ_percent::total     0.466747                       # Average percentage of cache occupancy
system.cpu.dcache.tags.occ_task_id_blocks::1024          256                       # Occupied blocks per task id
system.cpu.dcache.tags.age_task_id_blocks_1024::0           13                       # Occupied blocks per task id
system.cpu.dcache.tags.age_task_id_blocks_1024::2            1                       # Occupied blocks per task id
system.cpu.dcache.tags.age_task_id_blocks_1024::3          242                       # Occupied blocks per task id
system.cpu.dcache.tags.occ_task_id_percent::1024     0.500000                       # Percentage of cache occupancy per task id
system.cpu.dcache.tags.tag_accesses          16717456                       # Number of tag accesses
system.cpu.dcache.tags.data_accesses         16717456                       # Number of data accesses
system.cpu.dcache.pwrStateResidencyTicks::UNDEFINED   6494783500                       # Cumulative time (in ticks) in various power states
system.cpu.dcache.ReadReq_hits::.cpu.data      1560676                       # number of ReadReq hits
system.cpu.dcache.ReadReq_hits::total         1560676                       # number of ReadReq hits
system.cpu.dcache.WriteReq_hits::.cpu.data       528625                       # number of WriteReq hits
system.cpu.dcache.WriteReq_hits::total         528625                       # number of WriteReq hits
system.cpu.dcache.demand_hits::.cpu.data      2089301                       # number of demand (read+write) hits
system.cpu.dcache.demand_hits::total          2089301                       # number of demand (read+write) hits
system.cpu.dcache.overall_hits::.cpu.data      2089301                       # number of overall hits
system.cpu.dcache.overall_hits::total         2089301                       # number of overall hits
system.cpu.dcache.ReadReq_misses::.cpu.data          212                       # number of ReadReq misses
system.cpu.dcache.ReadReq_misses::total           212                       # number of ReadReq misses
system.cpu.dcache.WriteReq_misses::.cpu.data          137                       # number of WriteReq misses
system.cpu.dcache.WriteReq_misses::total          137                       # number of WriteReq misses
system.cpu.dcache.demand_misses::.cpu.data          349                       # number of demand (read+write) misses
system.cpu.dcache.demand_misses::total            349                       # number of demand (read+write) misses
system.cpu.dcache.overall_misses::.cpu.data          349                       # number of overall misses
system.cpu.dcache.overall_misses::total           349                       # number of overall misses
system.cpu.dcache.ReadReq_miss_latency::.cpu.data     16817500                       # number of ReadReq miss cycles
system.cpu.dcache.ReadReq_miss_latency::total     16817500                       # number of ReadReq miss cycles
system.cpu.dcache.WriteReq_miss_latency::.cpu.data     16981500                       # number of WriteReq miss cycles
system.cpu.dcache.WriteReq_miss_latency::total     16981500                       # number of WriteReq miss cycles
system.cpu.dcache.demand_miss_latency::.cpu.data     33799000                       # number of demand (read+write) miss cycles
system.cpu.dcache.demand_miss_latency::total     33799000                       # number of demand (read+write) miss cycles
system.cpu.dcache.overall_miss_latency::.cpu.data     33799000                       # number of overall miss cycles
system.cpu.dcache.overall_miss_latency::total     33799000                       # number of overall miss cycles
system.cpu.dcache.ReadReq_accesses::.cpu.data      1560888                       # number of ReadReq accesses(hits+misses)
system.cpu.dcache.ReadReq_accesses::total      1560888                       # number of ReadReq accesses(hits+misses)
system.cpu.dcache.WriteReq_accesses::.cpu.data       528762                       # number of WriteReq accesses(hits+misses)
system.cpu.dcache.WriteReq_accesses::total       528762                       # number of WriteReq accesses(hits+misses)
system.cpu.dcache.demand_accesses::.cpu.data      2089650                       # number of demand (read+write) accesses
system.cpu.dcache.demand_accesses::total      2089650                       # number of demand (read+write) accesses
system.cpu.dcache.overall_accesses::.cpu.data      2089650                       # number of overall (read+write) accesses
system.cpu.dcache.overall_accesses::total      2089650                       # number of overall (read+write) accesses
system.cpu.dcache.ReadReq_miss_rate::.cpu.data     0.000136                       # miss rate for ReadReq accesses
system.cpu.dcache.ReadReq_miss_rate::total     0.000136                       # miss rate for ReadReq accesses
system.cpu.dcache.WriteReq_miss_rate::.cpu.data     0.000259                       # miss rate for WriteReq accesses
system.cpu.dcache.WriteReq_miss_rate::total     0.000259                       # miss rate for WriteReq accesses
system.cpu.dcache.demand_miss_rate::.cpu.data     0.000167                       # miss rate for demand accesses
system.cpu.dcache.demand_miss_rate::total     0.000167                       # miss rate for demand accesses
system.cpu.dcache.overall_miss_rate::.cpu.data     0.000167                       # miss rate for overall accesses
system.cpu.dcache.overall_miss_rate::total     0.000167                       # miss rate for overall accesses
system.cpu.dcache.ReadReq_avg_miss_latency::.cpu.data 79327.830189                       # average ReadReq miss latency
system.cpu.dcache.ReadReq_avg_miss_latency::total 79327.830189                       # average ReadReq miss latency
system.cpu.dcache.WriteReq_avg_miss_latency::.cpu.data 123952.554745                       # average WriteReq miss latency
system.cpu.dcache.WriteReq_avg_miss_latency::total 123952.554745                       # average WriteReq miss latency
system.cpu.dcache.demand_avg_miss_latency::.cpu.data 96845.272206                       # average overall miss latency
system.cpu.dcache.demand_avg_miss_latency::total 96845.272206                       # average overall miss latency
system.cpu.dcache.overall_avg_miss_latency::.cpu.data 96845.272206                       # average overall miss latency
system.cpu.dcache.overall_avg_miss_latency::total 96845.272206                       # average overall miss latency
system.cpu.dcache.blocked_cycles::no_mshrs          368                       # number of cycles access was blocked
[...]
system.l3bus.snoop_fanout::overflows                0      0.00%    100.00% # Request fanout histogram
system.l3bus.snoop_fanout::min_value                0                       # Request fanout histogram
system.l3bus.snoop_fanout::max_value                0                       # Request fanout histogram
system.l3bus.snoop_fanout::total                  765                       # Request fanout histogram
system.l3bus.reqLayer0.occupancy               382500                       # Layer occupancy (ticks)
system.l3bus.reqLayer0.utilization                0.0                       # Layer utilization (%)
system.l3bus.respLayer0.occupancy             1912500                       # Layer occupancy (ticks)
system.l3bus.respLayer0.utilization               0.0                       # Layer utilization (%)
system.l3cache.tags.pwrStateResidencyTicks::UNDEFINED   6494783500                       # Cumulative time (in ticks) in various power states
system.l3cache.tags.tagsinuse              678.849069                       # Cycle average of tags in use
system.l3cache.tags.total_refs                    765                       # Total number of references to valid blocks.
system.l3cache.tags.sampled_refs                  765                       # Sample count of references to valid blocks.
system.l3cache.tags.avg_refs                        1                       # Average number of references to valid blocks.
system.l3cache.tags.warmup_cycle                76000                       # Cycle when the warmup percentage was hit.
system.l3cache.tags.occ_blocks::.cpu.inst   439.874498                       # Average occupied blocks per requestor
system.l3cache.tags.occ_blocks::.cpu.data   238.974571                       # Average occupied blocks per requestor
system.l3cache.tags.occ_percent::.cpu.inst     0.013424                       # Average percentage of cache occupancy
system.l3cache.tags.occ_percent::.cpu.data     0.007293                       # Average percentage of cache occupancy
system.l3cache.tags.occ_percent::total       0.020717                       # Average percentage of cache occupancy
system.l3cache.tags.occ_task_id_blocks::1024          765                       # Occupied blocks per task id
system.l3cache.tags.age_task_id_blocks_1024::0           79                       # Occupied blocks per task id
system.l3cache.tags.age_task_id_blocks_1024::2            2                       # Occupied blocks per task id
system.l3cache.tags.age_task_id_blocks_1024::3          684                       # Occupied blocks per task id
system.l3cache.tags.occ_task_id_percent::1024     0.023346                       # Percentage of cache occupancy per task id
system.l3cache.tags.tag_accesses                13005                       # Number of tag accesses
system.l3cache.tags.data_accesses               13005                       # Number of data accesses
system.l3cache.pwrStateResidencyTicks::UNDEFINED   6494783500                       # Cumulative time (in ticks) in various power states
system.l3cache.ReadExReq_misses::.cpu.data          136                       # number of ReadExReq misses
system.l3cache.ReadExReq_misses::total            136                       # number of ReadExReq misses
system.l3cache.ReadSharedReq_misses::.cpu.inst          509                       # number of ReadSharedReq misses
system.l3cache.ReadSharedReq_misses::.cpu.data          120                       # number of ReadSharedReq misses
system.l3cache.ReadSharedReq_misses::total          629                       # number of ReadSharedReq misses
system.l3cache.demand_misses::.cpu.inst           509                       # number of demand (read+write) misses
system.l3cache.demand_misses::.cpu.data           256                       # number of demand (read+write) misses
system.l3cache.demand_misses::total               765                       # number of demand (read+write) misses
system.l3cache.overall_misses::.cpu.inst          509                       # number of overall misses
system.l3cache.overall_misses::.cpu.data          256                       # number of overall misses
system.l3cache.overall_misses::total              765                       # number of overall misses
system.l3cache.ReadExReq_miss_latency::.cpu.data     15121000                       # number of ReadExReq miss cycles
system.l3cache.ReadExReq_miss_latency::total     15121000                       # number of ReadExReq miss cycles
system.l3cache.ReadSharedReq_miss_latency::.cpu.inst     38717500                       # number of ReadSharedReq miss cycles
system.l3cache.ReadSharedReq_miss_latency::.cpu.data      8481000                       # number of ReadSharedReq miss cycles
system.l3cache.ReadSharedReq_miss_latency::total     47198500                       # number of ReadSharedReq miss cycles
system.l3cache.demand_miss_latency::.cpu.inst     38717500                       # number of demand (read+write) miss cycles
system.l3cache.demand_miss_latency::.cpu.data     23602000                       # number of demand (read+write) miss cycles
system.l3cache.demand_miss_latency::total     62319500                       # number of demand (read+write) miss cycles
system.l3cache.overall_miss_latency::.cpu.inst     38717500                       # number of overall miss cycles
system.l3cache.overall_miss_latency::.cpu.data     23602000                       # number of overall miss cycles
system.l3cache.overall_miss_latency::total     62319500                       # number of overall miss cycles
system.l3cache.ReadExReq_accesses::.cpu.data          136                       # number of ReadExReq accesses(hits+misses)
system.l3cache.ReadExReq_accesses::total          136                       # number of ReadExReq accesses(hits+misses)
system.l3cache.ReadSharedReq_accesses::.cpu.inst          509                       # number of ReadSharedReq accesses(hits+misses)
system.l3cache.ReadSharedReq_accesses::.cpu.data          120                       # number of ReadSharedReq accesses(hits+misses)
system.l3cache.ReadSharedReq_accesses::total          629                       # number of ReadSharedReq accesses(hits+misses)
system.l3cache.demand_accesses::.cpu.inst          509                       # number of demand (read+write) accesses
system.l3cache.demand_accesses::.cpu.data          256                       # number of demand (read+write) accesses
system.l3cache.demand_accesses::total             765                       # number of demand (read+write) accesses
system.l3cache.overall_accesses::.cpu.inst          509                       # number of overall (read+write) accesses
system.l3cache.overall_accesses::.cpu.data          256                       # number of overall (read+write) accesses
system.l3cache.overall_accesses::total            765                       # number of overall (read+write) accesses
system.l3cache.ReadExReq_miss_rate::.cpu.data            1                       # miss rate for ReadExReq accesses
system.l3cache.ReadExReq_miss_rate::total            1                       # miss rate for ReadExReq accesses
system.l3cache.ReadSharedReq_miss_rate::.cpu.inst            1                       # miss rate for ReadSharedReq accesses
system.l3cache.ReadSharedReq_miss_rate::.cpu.data            1                       # miss rate for ReadSharedReq accesses
system.l3cache.ReadSharedReq_miss_rate::total            1                       # miss rate for ReadSharedReq accesses
system.l3cache.demand_miss_rate::.cpu.inst            1                       # miss rate for demand accesses
system.l3cache.demand_miss_rate::.cpu.data            1                       # miss rate for demand accesses
system.l3cache.demand_miss_rate::total              1                       # miss rate for demand accesses
system.l3cache.overall_miss_rate::.cpu.inst            1                       # miss rate for overall accesses
system.l3cache.overall_miss_rate::.cpu.data            1                       # miss rate for overall accesses
system.l3cache.overall_miss_rate::total             1                       # miss rate for overall accesses
system.l3cache.ReadExReq_avg_miss_latency::.cpu.data 111183.823529                       # average ReadExReq miss latency
system.l3cache.ReadExReq_avg_miss_latency::total 111183.823529                       # average ReadExReq miss latency
system.l3cache.ReadSharedReq_avg_miss_latency::.cpu.inst 76065.815324                       # average ReadSharedReq miss latency
system.l3cache.ReadSharedReq_avg_miss_latency::.cpu.data        70675                       # average ReadSharedReq miss latency
system.l3cache.ReadSharedReq_avg_miss_latency::total 75037.360890                       # average ReadSharedReq miss latency
system.l3cache.demand_avg_miss_latency::.cpu.inst 76065.815324                       # average overall miss latency
system.l3cache.demand_avg_miss_latency::.cpu.data 92195.312500                       # average overall miss latency
system.l3cache.demand_avg_miss_latency::total 81463.398693                       # average overall miss latency
system.l3cache.overall_avg_miss_latency::.cpu.inst 76065.815324                       # average overall miss latency
system.l3cache.overall_avg_miss_latency::.cpu.data 92195.312500                       # average overall miss latency
system.l3cache.overall_avg_miss_latency::total 81463.398693                       # average overall miss latency
system.l3cache.blocked_cycles::no_mshrs             0                       # number of cycles access was blocked
system.l3cache.blocked_cycles::no_targets            0                       # number of cycles access was blocked
system.l3cache.blocked::no_mshrs                    0                       # number of cycles access was blocked
system.l3cache.blocked::no_targets                  0                       # number of cycles access was blocked
system.l3cache.avg_blocked_cycles::no_mshrs          nan                       # average number of cycles each access was blocked
system.l3cache.avg_blocked_cycles::no_targets          nan                       # average number of cycles each access was blocked
system.l3cache.ReadExReq_mshr_misses::.cpu.data          136                       # number of ReadExReq MSHR misses
system.l3cache.ReadExReq_mshr_misses::total          136                       # number of ReadExReq MSHR misses
system.l3cache.ReadSharedReq_mshr_misses::.cpu.inst          509                       # number of ReadSharedReq MSHR misses
system.l3cache.ReadSharedReq_mshr_misses::.cpu.data          120                       # number of ReadSharedReq MSHR misses
system.l3cache.ReadSharedReq_mshr_misses::total          629                       # number of ReadSharedReq MSHR misses
system.l3cache.demand_mshr_misses::.cpu.inst          509                       # number of demand (read+write) MSHR misses
system.l3cache.demand_mshr_misses::.cpu.data          256                       # number of demand (read+write) MSHR misses
system.l3cache.demand_mshr_misses::total          765                       # number of demand (read+write) MSHR misses
system.l3cache.overall_mshr_misses::.cpu.inst          509                       # number of overall MSHR misses
system.l3cache.overall_mshr_misses::.cpu.data          256                       # number of overall MSHR misses
system.l3cache.overall_mshr_misses::total          765                       # number of overall MSHR misses
system.l3cache.ReadExReq_mshr_miss_latency::.cpu.data     14849000                       # number of ReadExReq MSHR miss cycles
system.l3cache.ReadExReq_mshr_miss_latency::total     14849000                       # number of ReadExReq MSHR miss cycles
system.l3cache.ReadSharedReq_mshr_miss_latency::.cpu.inst     37699500                       # number of ReadSharedReq MSHR miss cycles
system.l3cache.ReadSharedReq_mshr_miss_latency::.cpu.data      8241000                       # number of ReadSharedReq MSHR miss cycles
system.l3cache.ReadSharedReq_mshr_miss_latency::total     45940500                       # number of ReadSharedReq MSHR miss cycles
system.l3cache.demand_mshr_miss_latency::.cpu.inst     37699500                       # number of demand (read+write) MSHR miss cycles
system.l3cache.demand_mshr_miss_latency::.cpu.data     23090000                       # number of demand (read+write) MSHR miss cycles
system.l3cache.demand_mshr_miss_latency::total     60789500                       # number of demand (read+write) MSHR miss cycles
system.l3cache.overall_mshr_miss_latency::.cpu.inst     37699500                       # number of overall MSHR miss cycles
system.l3cache.overall_mshr_miss_latency::.cpu.data     23090000                       # number of overall MSHR miss cycles
system.l3cache.overall_mshr_miss_latency::total     60789500                       # number of overall MSHR miss cycles
system.l3cache.ReadExReq_mshr_miss_rate::.cpu.data            1                       # mshr miss rate for ReadExReq accesses
system.l3cache.ReadExReq_mshr_miss_rate::total            1                       # mshr miss rate for ReadExReq accesses
system.l3cache.ReadSharedReq_mshr_miss_rate::.cpu.inst            1                       # mshr miss rate for ReadSharedReq accesses
system.l3cache.ReadSharedReq_mshr_miss_rate::.cpu.data            1                       # mshr miss rate for ReadSharedReq accesses
system.l3cache.ReadSharedReq_mshr_miss_rate::total            1                       # mshr miss rate for ReadSharedReq accesses
system.l3cache.demand_mshr_miss_rate::.cpu.inst            1                       # mshr miss rate for demand accesses
system.l3cache.demand_mshr_miss_rate::.cpu.data            1                       # mshr miss rate for demand accesses
system.l3cache.demand_mshr_miss_rate::total            1                       # mshr miss rate for demand accesses
system.l3cache.overall_mshr_miss_rate::.cpu.inst            1                       # mshr miss rate for overall accesses
system.l3cache.overall_mshr_miss_rate::.cpu.data            1                       # mshr miss rate for overall accesses
system.l3cache.overall_mshr_miss_rate::total            1                       # mshr miss rate for overall accesses
system.l3cache.ReadExReq_avg_mshr_miss_latency::.cpu.data 109183.823529                       # average ReadExReq mshr miss latency
system.l3cache.ReadExReq_avg_mshr_miss_latency::total 109183.823529                       # average ReadExReq mshr miss latency
system.l3cache.ReadSharedReq_avg_mshr_miss_latency::.cpu.inst 74065.815324                       # average ReadSharedReq mshr miss latency
system.l3cache.ReadSharedReq_avg_mshr_miss_latency::.cpu.data        68675                       # average ReadSharedReq mshr miss latency
system.l3cache.ReadSharedReq_avg_mshr_miss_latency::total 73037.360890                       # average ReadSharedReq mshr miss latency
system.l3cache.demand_avg_mshr_miss_latency::.cpu.inst 74065.815324                       # average overall mshr miss latency
system.l3cache.demand_avg_mshr_miss_latency::.cpu.data 90195.312500                       # average overall mshr miss latency
system.l3cache.demand_avg_mshr_miss_latency::total 79463.398693                       # average overall mshr miss latency
system.l3cache.overall_avg_mshr_miss_latency::.cpu.inst 74065.815324                       # average overall mshr miss latency
system.l3cache.overall_avg_mshr_miss_latency::.cpu.data 90195.312500                       # average overall mshr miss latency
system.l3cache.overall_avg_mshr_miss_latency::total 79463.398693                       # average overall mshr miss latency
system.l3cache.replacements                         0                       # number of replacements
system.membus.snoop_filter.tot_requests           765                       # Total number of requests made to the snoop filter.
system.membus.snoop_filter.hit_single_requests            0                       # Number of requests hitting in the snoop filter with a single holder of the requested data.
system.membus.snoop_filter.hit_multi_requests            0                       # Number of requests hitting in the snoop filter with multiple (>1) holders of the requested data.
system.membus.snoop_filter.tot_snoops               0                       # Total number of snoops made to the snoop filter.
system.membus.snoop_filter.hit_single_snoops            0                       # Number of snoops hitting in the snoop filter with a single holder of the requested data.
system.membus.snoop_filter.hit_multi_snoops            0                       # Number of snoops hitting in the snoop filter with multiple (>1) holders of the requested data.
system.membus.pwrStateResidencyTicks::UNDEFINED   6494783500                       # Cumulative time (in ticks) in various power states
system.membus.trans_dist::ReadResp                629                       # Transaction distribution
system.membus.trans_dist::ReadExReq               136                       # Transaction distribution
system.membus.trans_dist::ReadExResp              136                       # Transaction distribution
system.membus.trans_dist::ReadSharedReq           629                       # Transaction distribution
system.membus.pkt_count_system.l3cache.mem_side::system.mem_ctrl.port         1530                       # Packet count per connected master and slave (bytes)
system.membus.pkt_count_system.l3cache.mem_side::total         1530                       # Packet count per connected master and slave (bytes)
system.membus.pkt_count::total                   1530                       # Packet count per connected master and slave (bytes)
system.membus.pkt_size_system.l3cache.mem_side::system.mem_ctrl.port        48960                       # Cumulative packet size per connected master and slave (bytes)
system.membus.pkt_size_system.l3cache.mem_side::total        48960                       # Cumulative packet size per connected master and slave (bytes)
system.membus.pkt_size::total                   48960                       # Cumulative packet size per connected master and slave (bytes)
system.membus.snoops                                0                       # Total snoops (count)
system.membus.snoopTraffic                          0                       # Total snoop traffic (bytes)
system.membus.snoop_fanout::samples               765                       # Request fanout histogram
system.membus.snoop_fanout::mean                    0                       # Request fanout histogram
system.membus.snoop_fanout::stdev                   0                       # Request fanout histogram
system.membus.snoop_fanout::underflows              0      0.00%      0.00% # Request fanout histogram
system.membus.snoop_fanout::0                     765    100.00%    100.00% # Request fanout histogram
system.membus.snoop_fanout::1                       0      0.00%    100.00% # Request fanout histogram
system.membus.snoop_fanout::overflows               0      0.00%    100.00% # Request fanout histogram
system.membus.snoop_fanout::min_value               0                       # Request fanout histogram
system.membus.snoop_fanout::max_value               0                       # Request fanout histogram
system.membus.snoop_fanout::total                 765                       # Request fanout histogram
system.membus.reqLayer0.occupancy              382500                       # Layer occupancy (ticks)
system.membus.reqLayer0.utilization               0.0                       # Layer utilization (%)
system.membus.respLayer0.occupancy            2076250                       # Layer occupancy (ticks)
system.membus.respLayer0.utilization              0.0                       # Layer utilization (%)

---------- End Simulation Statistics   ----------
