
---------- Begin Simulation Statistics ----------
sim_seconds                                  0.016267                       # Number of seconds simulated
sim_ticks                                 16267278500                       # Number of ticks simulated
final_tick                                16267278500                       # Number of ticks from beginning of simulation (restored from checkpoints and never reset)
sim_freq                                 1000000000000                       # Frequency of simulated ticks
host_inst_rate                                  56186                       # Simulator instruction rate (inst/s)
host_op_rate                                   266027                       # Simulator op (including micro ops) rate (op/s)
host_tick_rate                              178076869                       # Simulator tick rate (ticks/s)
host_mem_usage                                 661148                       # Number of bytes of host memory used
host_seconds                                    91.35                       # Real time elapsed on the host
sim_insts                                     5132577                       # Number of instructions simulated
sim_ops                                      24301499                       # Number of ops (including micro ops) simulated
system.clk_domain.voltage_domain.voltage            1                       # Voltage in Volts
system.clk_domain.clock                           500                       # Clock period in ticks
system.mem_ctrl.pwrStateResidencyTicks::UNDEFINED  16267278500                       # Cumulative time (in ticks) in various power states
system.mem_ctrl.bytes_read::.cpu.inst           34112                       # Number of bytes read from this memory
system.mem_ctrl.bytes_read::.cpu.data           16064                       # Number of bytes read from this memory
system.mem_ctrl.bytes_read::total               50176                       # Number of bytes read from this memory
system.mem_ctrl.bytes_inst_read::.cpu.inst        34112                       # Number of instructions bytes read from this memory
system.mem_ctrl.bytes_inst_read::total          34112                       # Number of instructions bytes read from this memory
system.mem_ctrl.num_reads::.cpu.inst              533                       # Number of read requests responded to by this memory
system.mem_ctrl.num_reads::.cpu.data              251                       # Number of read requests responded to by this memory
system.mem_ctrl.num_reads::total                  784                       # Number of read requests responded to by this memory
system.mem_ctrl.bw_read::.cpu.inst            2096970                       # Total read bandwidth from this memory (bytes/s)
system.mem_ctrl.bw_read::.cpu.data             987504                       # Total read bandwidth from this memory (bytes/s)
system.mem_ctrl.bw_read::total                3084474                       # Total read bandwidth from this memory (bytes/s)
system.mem_ctrl.bw_inst_read::.cpu.inst       2096970                       # Instruction read bandwidth from this memory (bytes/s)
system.mem_ctrl.bw_inst_read::total           2096970                       # Instruction read bandwidth from this memory (bytes/s)
system.mem_ctrl.bw_total::.cpu.inst           2096970                       # Total bandwidth to/from this memory (bytes/s)
system.mem_ctrl.bw_total::.cpu.data            987504                       # Total bandwidth to/from this memory (bytes/s)
system.mem_ctrl.bw_total::total               3084474                       # Total bandwidth to/from this memory (bytes/s)
system.mem_ctrl.avgPriority_.cpu.inst::samples       533.00                       # Average QoS priority value for accepted requests
system.mem_ctrl.avgPriority_.cpu.data::samples       251.00                       # Average QoS priority value for accepted requests
system.mem_ctrl.priorityMinLatency       0.000000018750                       # per QoS priority minimum request to response latency (s)
system.mem_ctrl.priorityMaxLatency       0.000001099750                       # per QoS priority maximum request to response latency (s)
system.mem_ctrl.numReadWriteTurnArounds             0                       # Number of turnarounds from READ to WRITE
system.mem_ctrl.numWriteReadTurnArounds             0                       # Number of turnarounds from WRITE to READ
system.mem_ctrl.numStayReadState                 1604                       # Number of times bus staying in READ state
system.mem_ctrl.numStayWriteState                   0                       # Number of times bus staying in WRITE state
system.mem_ctrl.readReqs                          784                       # Number of read requests accepted
system.mem_ctrl.writeReqs                           0                       # Number of write requests accepted
system.mem_ctrl.readBursts                        784                       # Number of DRAM read bursts, including those serviced by the write queue
system.mem_ctrl.writeBursts                         0                       # Number of DRAM write bursts, including those merged in the write queue
system.mem_ctrl.bytesReadDRAM                   50176                       # Total number of bytes read from DRAM
system.mem_ctrl.bytesReadWrQ                        0                       # Total number of bytes read from write queue
system.mem_ctrl.bytesWritten                        0                       # Total number of bytes written to DRAM
system.mem_ctrl.bytesReadSys                    50176                       # Total read bytes from the system interface side
system.mem_ctrl.bytesWrittenSys                     0                       # Total written bytes from the system interface side
system.mem_ctrl.servicedByWrQ                       0                       # Number of DRAM read bursts serviced by the write queue
system.mem_ctrl.mergedWrBursts                      0                       # Number of DRAM write bursts merged with an existing one
system.mem_ctrl.neitherReadNorWriteReqs             0                       # Number of requests that are neither read nor write
system.mem_ctrl.perBankRdBursts::0                166                       # Per bank write bursts
system.mem_ctrl.perBankRdBursts::1                 19                       # Per bank write bursts
system.mem_ctrl.perBankRdBursts::2                 24                       # Per bank write bursts
system.mem_ctrl.perBankRdBursts::3                  9                       # Per bank write bursts
system.mem_ctrl.perBankRdBursts::4                  4                       # Per bank write bursts
system.mem_ctrl.perBankRdBursts::5                 16                       # Per bank write bursts
system.mem_ctrl.perBankRdBursts::6                 62                       # Per bank write bursts
system.mem_ctrl.perBankRdBursts::7                 45                       # Per bank write bursts
system.mem_ctrl.perBankRdBursts::8                  5                       # Per bank write bursts
system.mem_ctrl.perBankRdBursts::9                 29                       # Per bank write bursts
system.mem_ctrl.perBankRdBursts::10                49                       # Per bank write bursts
system.mem_ctrl.perBankRdBursts::11                21                       # Per bank write bursts
system.mem_ctrl.perBankRdBursts::12                98                       # Per bank write bursts
system.mem_ctrl.perBankRdBursts::13                61                       # Per bank write bursts
system.mem_ctrl.perBankRdBursts::14               118                       # Per bank write bursts
system.mem_ctrl.perBankRdBursts::15                58                       # Per bank write bursts
system.mem_ctrl.perBankWrBursts::0                  0                       # Per bank write bursts
system.mem_ctrl.perBankWrBursts::1                  0                       # Per bank write bursts
system.mem_ctrl.perBankWrBursts::2                  0                       # Per bank write bursts
system.mem_ctrl.perBankWrBursts::3                  0                       # Per bank write bursts
system.mem_ctrl.perBankWrBursts::4                  0                       # Per bank write bursts
system.mem_ctrl.perBankWrBursts::5                  0                       # Per bank write bursts
system.mem_ctrl.perBankWrBursts::6                  0                       # Per bank write bursts
system.mem_ctrl.perBankWrBursts::7                  0                       # Per bank write bursts
system.mem_ctrl.perBankWrBursts::8                  0                       # Per bank write bursts
system.mem_ctrl.perBankWrBursts::9                  0                       # Per bank write bursts
system.mem_ctrl.perBankWrBursts::10                 0                       # Per bank write bursts
system.mem_ctrl.perBankWrBursts::11                 0                       # Per bank write bursts
system.mem_ctrl.perBankWrBursts::12                 0                       # Per bank write bursts
system.mem_ctrl.perBankWrBursts::13                 0                       # Per bank write bursts
system.mem_ctrl.perBankWrBursts::14                 0                       # Per bank write bursts
system.mem_ctrl.perBankWrBursts::15                 0                       # Per bank write bursts
system.mem_ctrl.numRdRetry                          0                       # Number of times read queue was full causing retry
system.mem_ctrl.numWrRetry                          0                       # Number of times write queue was full causing retry
system.mem_ctrl.totGap                    16267191000                       # Total gap between requests
system.mem_ctrl.readPktSize::0                      0                       # Read request sizes (log2)
system.mem_ctrl.readPktSize::1                      0                       # Read request sizes (log2)
system.mem_ctrl.readPktSize::2                      0                       # Read request sizes (log2)
system.mem_ctrl.readPktSize::3                      0                       # Read request sizes (log2)
system.mem_ctrl.readPktSize::4                      0                       # Read request sizes (log2)
system.mem_ctrl.readPktSize::5                      0                       # Read request sizes (log2)
system.mem_ctrl.readPktSize::6                    784                       # Read request sizes (log2)
system.mem_ctrl.writePktSize::0                     0                       # Write request sizes (log2)
system.mem_ctrl.writePktSize::1                     0                       # Write request sizes (log2)
system.mem_ctrl.writePktSize::2                     0                       # Write request sizes (log2)
system.mem_ctrl.writePktSize::3                     0                       # Write request sizes (log2)
system.mem_ctrl.writePktSize::4                     0                       # Write request sizes (log2)
system.mem_ctrl.writePktSize::5                     0                       # Write request sizes (log2)
system.mem_ctrl.writePktSize::6                     0                       # Write request sizes (log2)
system.mem_ctrl.rdQLenPdf::0                      521                       # What read queue length does an incoming req see
system.mem_ctrl.rdQLenPdf::1                      215                       # What read queue length does an incoming req see
system.mem_ctrl.rdQLenPdf::2                       41                       # What read queue length does an incoming req see
system.mem_ctrl.rdQLenPdf::3                        6                       # What read queue length does an incoming req see
system.mem_ctrl.rdQLenPdf::4                        1                       # What read queue length does an incoming req see
system.mem_ctrl.rdQLenPdf::5                        0                       # What read queue length does an incoming req see
system.mem_ctrl.rdQLenPdf::6                        0                       # What read queue length does an incoming req see
system.mem_ctrl.rdQLenPdf::7                        0                       # What read queue length does an incoming req see
system.mem_ctrl.rdQLenPdf::8                        0                       # What read queue length does an incoming req see
system.mem_ctrl.rdQLenPdf::9                        0                       # What read queue length does an incoming req see
system.mem_ctrl.rdQLenPdf::10                       0                       # What read queue length does an incoming req see
system.mem_ctrl.rdQLenPdf::11                       0                       # What read queue length does an incoming req see
system.mem_ctrl.rdQLenPdf::12                       0                       # What read queue length does an incoming req see
system.mem_ctrl.rdQLenPdf::13                       0                       # What read queue length does an incoming req see
system.mem_ctrl.rdQLenPdf::14                       0                       # What read queue length does an incoming req see
system.mem_ctrl.rdQLenPdf::15                       0                       # What read queue length does an incoming req see
system.mem_ctrl.rdQLenPdf::16                       0                       # What read queue length does an incoming req see
system.mem_ctrl.rdQLenPdf::17                       0                       # What read queue length does an incoming req see
system.mem_ctrl.rdQLenPdf::18                       0                       # What read queue length does an incoming req see
system.mem_ctrl.rdQLenPdf::19                       0                       # What read queue length does an incoming req see
system.mem_ctrl.rdQLenPdf::20                       0                       # What read queue length does an incoming req see
system.mem_ctrl.rdQLenPdf::21                       0                       # What read queue length does an incoming req see
system.mem_ctrl.rdQLenPdf::22                       0                       # What read queue length does an incoming req see
system.mem_ctrl.rdQLenPdf::23                       0                       # What read queue length does an incoming req see
system.mem_ctrl.rdQLenPdf::24                       0                       # What read queue length does an incoming req see
system.mem_ctrl.rdQLenPdf::25                       0                       # What read queue length does an incoming req see
system.mem_ctrl.rdQLenPdf::26                       0                       # What read queue length does an incoming req see
system.mem_ctrl.rdQLenPdf::27                       0                       # What read queue length does an incoming req see
system.mem_ctrl.rdQLenPdf::28                       0                       # What read queue length does an incoming req see
system.mem_ctrl.rdQLenPdf::29                       0                       # What read queue length does an incoming req see
system.mem_ctrl.rdQLenPdf::30                       0                       # What read queue length does an incoming req see
system.mem_ctrl.rdQLenPdf::31                       0                       # What read queue length does an incoming req see
system.mem_ctrl.wrQLenPdf::0                        0                       # What write queue length does an incoming req see
system.mem_ctrl.wrQLenPdf::1                        0                       # What write queue length does an incoming req see
system.mem_ctrl.wrQLenPdf::2                        0                       # What write queue length does an incoming req see
system.mem_ctrl.wrQLenPdf::3                        0                       # What write queue length does an incoming req see
system.mem_ctrl.wrQLenPdf::4                        0                       # What write queue length does an incoming req see
system.mem_ctrl.wrQLenPdf::5                        0                       # What write queue length does an incoming req see
system.mem_ctrl.wrQLenPdf::6                        0                       # What write queue length does an incoming req see
system.mem_ctrl.wrQLenPdf::7                        0                       # What write queue length does an incoming req see
system.mem_ctrl.wrQLenPdf::8                        0                       # What write queue length does an incoming req see
system.mem_ctrl.wrQLenPdf::9                        0                       # What write queue length does an incoming req see
system.mem_ctrl.wrQLenPdf::10                       0                       # What write queue length does an incoming req see
system.mem_ctrl.wrQLenPdf::11                       0                       # What write queue length does an incoming req see
system.mem_ctrl.wrQLenPdf::12                       0                       # What write queue length does an incoming req see
system.mem_ctrl.wrQLenPdf::13                       0                       # What write queue length does an incoming req see
system.mem_ctrl.wrQLenPdf::14                       0                       # What write queue length does an incoming req see
system.mem_ctrl.wrQLenPdf::15                       0                       # What write queue length does an incoming req see
system.mem_ctrl.wrQLenPdf::16                       0                       # What write queue length does an incoming req see
system.mem_ctrl.wrQLenPdf::17                       0                       # What write queue length does an incoming req see
system.mem_ctrl.wrQLenPdf::18                       0                       # What write queue length does an incoming req see
system.mem_ctrl.wrQLenPdf::19                       0                       # What write queue length does an incoming req see
system.mem_ctrl.wrQLenPdf::20                       0                       # What write queue length does an incoming req see
system.mem_ctrl.wrQLenPdf::21                       0                       # What write queue length does an incoming req see
system.mem_ctrl.wrQLenPdf::22                       0                       # What write queue length does an incoming req see
system.mem_ctrl.wrQLenPdf::23                       0                       # What write queue length does an incoming req see
system.mem_ctrl.wrQLenPdf::24                       0                       # What write queue length does an incoming req see
system.mem_ctrl.wrQLenPdf::25                       0                       # What write queue length does an incoming req see
system.mem_ctrl.wrQLenPdf::26                       0                       # What write queue length does an incoming req see
system.mem_ctrl.wrQLenPdf::27                       0                       # What write queue length does an incoming req see
system.mem_ctrl.wrQLenPdf::28                       0                       # What write queue length does an incoming req see
system.mem_ctrl.wrQLenPdf::29                       0                       # What write queue length does an incoming req see
system.mem_ctrl.wrQLenPdf::30                       0                       # What write queue length does an incoming req see
system.mem_ctrl.wrQLenPdf::31                       0                       # What write queue length does an incoming req see
system.mem_ctrl.wrQLenPdf::32                       0                       # What write queue length does an incoming req see
system.mem_ctrl.wrQLenPdf::33                       0                       # What write queue length does an incoming req see
system.mem_ctrl.wrQLenPdf::34                       0                       # What write queue length does an incoming req see
system.mem_ctrl.wrQLenPdf::35                       0                       # What write queue length does an incoming req see
system.mem_ctrl.wrQLenPdf::36                       0                       # What write queue length does an incoming req see
system.mem_ctrl.wrQLenPdf::37                       0                       # What write queue length does an incoming req see
system.mem_ctrl.wrQLenPdf::38                       0                       # What write queue length does an incoming req see
system.mem_ctrl.wrQLenPdf::39                       0                       # What write queue length does an incoming req see
system.mem_ctrl.wrQLenPdf::40                       0                       # What write queue length does an incoming req see
system.mem_ctrl.wrQLenPdf::41                       0                       # What write queue length does an incoming req see
system.mem_ctrl.wrQLenPdf::42                       0                       # What write queue length does an incoming req see
system.mem_ctrl.wrQLenPdf::43                       0                       # What write queue length does an incoming req see
system.mem_ctrl.wrQLenPdf::44                       0                       # What write queue length does an incoming req see
system.mem_ctrl.wrQLenPdf::45                       0                       # What write queue length does an incoming req see
system.mem_ctrl.wrQLenPdf::46                       0                       # What write queue length does an incoming req see
system.mem_ctrl.wrQLenPdf::47                       0                       # What write queue length does an incoming req see
system.mem_ctrl.wrQLenPdf::48                       0                       # What write queue length does an incoming req see
system.mem_ctrl.wrQLenPdf::49                       0                       # What write queue length does an incoming req see
system.mem_ctrl.wrQLenPdf::50                       0                       # What write queue length does an incoming req see
system.mem_ctrl.wrQLenPdf::51                       0                       # What write queue length does an incoming req see
system.mem_ctrl.wrQLenPdf::52                       0                       # What write queue length does an incoming req see
system.mem_ctrl.wrQLenPdf::53                       0                       # What write queue length does an incoming req see
system.mem_ctrl.wrQLenPdf::54                       0                       # What write queue length does an incoming req see
system.mem_ctrl.wrQLenPdf::55                       0                       # What write queue length does an incoming req see
system.mem_ctrl.wrQLenPdf::56                       0                       # What write queue length does an incoming req see
system.mem_ctrl.wrQLenPdf::57                       0                       # What write queue length does an incoming req see
system.mem_ctrl.wrQLenPdf::58                       0                       # What write queue length does an incoming req see
system.mem_ctrl.wrQLenPdf::59                       0                       # What write queue length does an incoming req see
system.mem_ctrl.wrQLenPdf::60                       0                       # What write queue length does an incoming req see
system.mem_ctrl.wrQLenPdf::61                       0                       # What write queue length does an incoming req see
system.mem_ctrl.wrQLenPdf::62                       0                       # What write queue length does an incoming req see
system.mem_ctrl.wrQLenPdf::63                       0                       # What write queue length does an incoming req see
system.mem_ctrl.bytesPerActivate::samples          159                       # Bytes accessed per row activation
system.mem_ctrl.bytesPerActivate::mean     295.849057                       # Bytes accessed per row activation
system.mem_ctrl.bytesPerActivate::gmean    182.580557                       # Bytes accessed per row activation
system.mem_ctrl.bytesPerActivate::stdev    303.081185                       # Bytes accessed per row activation
system.mem_ctrl.bytesPerActivate::0-127            56     35.22%     35.22% # Bytes accessed per row activation
system.mem_ctrl.bytesPerActivate::128-255           41     25.79%     61.01% # Bytes accessed per row activation
system.mem_ctrl.bytesPerActivate::256-383           16     10.06%     71.07% # Bytes accessed per row activation
system.mem_ctrl.bytesPerActivate::384-511           14      8.81%     79.87% # Bytes accessed per row activation
system.mem_ctrl.bytesPerActivate::512-639            6      3.77%     83.65% # Bytes accessed per row activation
system.mem_ctrl.bytesPerActivate::640-767            4      2.52%     86.16% # Bytes accessed per row activation
system.mem_ctrl.bytesPerActivate::768-895            6      3.77%     89.94% # Bytes accessed per row activation
system.mem_ctrl.bytesPerActivate::896-1023            4      2.52%     92.45% # Bytes accessed per row activation
system.mem_ctrl.bytesPerActivate::1024-1151           12      7.55%    100.00% # Bytes accessed per row activation
system.mem_ctrl.bytesPerActivate::total           159                       # Bytes accessed per row activation
system.mem_ctrl.masterReadBytes::.cpu.inst        34112                       # Per-master bytes read from memory
system.mem_ctrl.masterReadBytes::.cpu.data        16064                       # Per-master bytes read from memory
system.mem_ctrl.masterReadRate::.cpu.inst 2096970.307602467248                       # Per-master bytes read from memory rate (Bytes/sec)
system.mem_ctrl.masterReadRate::.cpu.data 987503.840915983659                       # Per-master bytes read from memory rate (Bytes/sec)
system.mem_ctrl.masterReadAccesses::.cpu.inst          533                       # Per-master read serviced memory accesses
system.mem_ctrl.masterReadAccesses::.cpu.data          251                       # Per-master read serviced memory accesses
system.mem_ctrl.masterReadTotalLat::.cpu.inst     20770250                       # Per-master read total memory access latency
system.mem_ctrl.masterReadTotalLat::.cpu.data     13757750                       # Per-master read total memory access latency
system.mem_ctrl.masterReadAvgLat::.cpu.inst     38968.57                       # Per-master read average memory access latency
system.mem_ctrl.masterReadAvgLat::.cpu.data     54811.75                       # Per-master read average memory access latency
system.mem_ctrl.totQLat                      19828000                       # Total ticks spent queuing
system.mem_ctrl.totMemAccLat                 34528000                       # Total ticks spent from burst creation until serviced by the DRAM
system.mem_ctrl.totBusLat                     3920000                       # Total ticks spent in databus transfers
system.mem_ctrl.avgQLat                      25290.82                       # Average queueing delay per DRAM burst
system.mem_ctrl.avgBusLat                     5000.00                       # Average bus latency per DRAM burst
system.mem_ctrl.avgMemAccLat                 44040.82                       # Average memory access latency per DRAM burst
system.mem_ctrl.avgRdBW                          3.08                       # Average DRAM read bandwidth in MiByte/s
system.mem_ctrl.avgWrBW                          0.00                       # Average achieved write bandwidth in MiByte/s
system.mem_ctrl.avgRdBWSys                       3.08                       # Average system read bandwidth in MiByte/s
system.mem_ctrl.avgWrBWSys                       0.00                       # Average system write bandwidth in MiByte/s
system.mem_ctrl.peakBW                       12800.00                       # Theoretical peak bandwidth in MiByte/s
system.mem_ctrl.busUtil                          0.02                       # Data bus utilization in percentage
system.mem_ctrl.busUtilRead                      0.02                       # Data bus utilization in percentage for reads
system.mem_ctrl.busUtilWrite                     0.00                       # Data bus utilization in percentage for writes
system.mem_ctrl.avgRdQLen                        1.13                       # Average read queue length when enqueuing
system.mem_ctrl.avgWrQLen                        0.00                       # Average write queue length when enqueuing
system.mem_ctrl.readRowHits                       614                       # Number of row buffer hits during reads
system.mem_ctrl.writeRowHits                        0                       # Number of row buffer hits during writes
system.mem_ctrl.readRowHitRate                  78.32                       # Row buffer hit rate for reads
system.mem_ctrl.writeRowHitRate                   nan                       # Row buffer hit rate for writes
system.mem_ctrl.avgGap                    20748968.11                       # Average gap between requests
system.mem_ctrl.pageHitRate                     78.32                       # Row buffer hit rate, read and write combined
system.mem_ctrl_0.actEnergy                    514080                       # Energy for activate commands per rank (pJ)
system.mem_ctrl_0.preEnergy                    258060                       # Energy for precharge commands per rank (pJ)
system.mem_ctrl_0.readEnergy                  2463300                       # Energy for read commands per rank (pJ)
system.mem_ctrl_0.writeEnergy                       0                       # Energy for write commands per rank (pJ)
system.mem_ctrl_0.refreshEnergy          23356320.000000                       # Energy for refresh commands per rank (pJ)
system.mem_ctrl_0.actBackEnergy               8340240                       # Energy for active background per rank (pJ)
system.mem_ctrl_0.preBackEnergy               2075520                       # Energy for precharge background per rank (pJ)
system.mem_ctrl_0.actPowerDownEnergy         73266660                       # Energy for active power-down per rank (pJ)
system.mem_ctrl_0.prePowerDownEnergy         46329600                       # Energy for precharge power-down per rank (pJ)
system.mem_ctrl_0.selfRefreshEnergy        3839778540                       # Energy for self refresh per rank (pJ)
system.mem_ctrl_0.totalEnergy              3996382320                       # Total energy per rank (pJ)
system.mem_ctrl_0.averagePower             245.670001                       # Core power per rank (mW)
system.mem_ctrl_0.totalIdleTime           16243565750                       # Total Idle time Per DRAM Rank
system.mem_ctrl_0.memoryStateTime::IDLE       4560500                       # Time in different power states
system.mem_ctrl_0.memoryStateTime::REF        9880000                       # Time in different power states
system.mem_ctrl_0.memoryStateTime::SREF   15962264000                       # Time in different power states
system.mem_ctrl_0.memoryStateTime::PRE_PDN    120652750                       # Time in different power states
system.mem_ctrl_0.memoryStateTime::ACT        9228000                       # Time in different power states
system.mem_ctrl_0.memoryStateTime::ACT_PDN    160693250                       # Time in different power states
system.mem_ctrl_1.actEnergy                    699720                       # Energy for activate commands per rank (pJ)
system.mem_ctrl_1.preEnergy                    345345                       # Energy for precharge commands per rank (pJ)
system.mem_ctrl_1.readEnergy                  3134460                       # Energy for read commands per rank (pJ)
system.mem_ctrl_1.writeEnergy                       0                       # Energy for write commands per rank (pJ)
system.mem_ctrl_1.refreshEnergy          6146400.000000                       # Energy for refresh commands per rank (pJ)
system.mem_ctrl_1.actBackEnergy               6148590                       # Energy for active background per rank (pJ)
system.mem_ctrl_1.preBackEnergy                379680                       # Energy for precharge background per rank (pJ)
system.mem_ctrl_1.actPowerDownEnergy         24691830                       # Energy for active power-down per rank (pJ)
system.mem_ctrl_1.prePowerDownEnergy          6111360                       # Energy for precharge power-down per rank (pJ)
system.mem_ctrl_1.selfRefreshEnergy        3884962680                       # Energy for self refresh per rank (pJ)
system.mem_ctrl_1.totalEnergy              3932620065                       # Total energy per rank (pJ)
system.mem_ctrl_1.averagePower             241.750337                       # Core power per rank (mW)
system.mem_ctrl_1.totalIdleTime           16252663500                       # Total Idle time Per DRAM Rank
system.mem_ctrl_1.memoryStateTime::IDLE        710500                       # Time in different power states
system.mem_ctrl_1.memoryStateTime::REF        2600000                       # Time in different power states
system.mem_ctrl_1.memoryStateTime::SREF   16182742500                       # Time in different power states
system.mem_ctrl_1.memoryStateTime::PRE_PDN     15917000                       # Time in different power states
system.mem_ctrl_1.memoryStateTime::ACT       11141250                       # Time in different power states
system.mem_ctrl_1.memoryStateTime::ACT_PDN     54167250                       # Time in different power states
system.pwrStateResidencyTicks::UNDEFINED  16267278500                       # Cumulative time (in ticks) in various power states
system.cpu.branchPred.lookups                 1552196                       # Number of BP lookups
system.cpu.branchPred.condPredicted           1552196                       # Number of conditional branches predicted
system.cpu.branchPred.condIncorrect             10461                       # Number of conditional branches incorrect
system.cpu.branchPred.BTBLookups              1138218                       # Number of BTB lookups
system.cpu.branchPred.BTBHits                       0                       # Number of BTB hits
system.cpu.branchPred.BTBCorrect                    0                       # Number of correct BTB predictions (this stat may not work properly.
system.cpu.branchPred.BTBHitPct              0.000000                       # BTB Hit Percentage
system.cpu.branchPred.usedRAS                    2141                       # Number of times the RAS was used to get a target.
system.cpu.branchPred.RASInCorrect                263                       # Number of incorrect RAS predictions.
system.cpu.branchPred.indirectLookups         1138218                       # Number of indirect predictor lookups.
system.cpu.branchPred.indirectHits            1020942                       # Number of indirect target hits.
system.cpu.branchPred.indirectMisses           117276                       # Number of indirect misses.
system.cpu.branchPredindirectMispredicted         1876                       # Number of mispredicted indirect branches.
system.cpu.dtb.walker.pwrStateResidencyTicks::UNDEFINED  16267278500                       # Cumulative time (in ticks) in various power states
system.cpu.dtb.rdAccesses                     2541988                       # TLB accesses on read requests
system.cpu.dtb.wrAccesses                      528950                       # TLB accesses on write requests
system.cpu.dtb.rdMisses                            29                       # TLB misses on read requests
system.cpu.dtb.wrMisses                            14                       # TLB misses on write requests
system.cpu.apic_clk_domain.clock                 8000                       # Clock period in ticks
system.cpu.interrupts.pwrStateResidencyTicks::UNDEFINED  16267278500                       # Cumulative time (in ticks) in various power states
system.cpu.itb.walker.pwrStateResidencyTicks::UNDEFINED  16267278500                       # Cumulative time (in ticks) in various power states
system.cpu.itb.rdAccesses                           0                       # TLB accesses on read requests
system.cpu.itb.wrAccesses                     1041327                       # TLB accesses on write requests
system.cpu.itb.rdMisses                             0                       # TLB misses on read requests
system.cpu.itb.wrMisses                           163                       # TLB misses on write requests
system.cpu.workload.numSyscalls                    11                       # Number of system calls
system.cpu.pwrStateResidencyTicks::ON     16267278500                       # Cumulative time (in ticks) in various power states
system.cpu.numCycles                         32534558                       # number of cpu cycles simulated
system.cpu.numWorkItemsStarted                      0                       # number of work items this cpu started
system.cpu.numWorkItemsCompleted                    0                       # number of work items this cpu completed
system.cpu.fetch.icacheStallCycles              35697                       # Number of cycles fetch is stalled on an Icache miss
system.cpu.fetch.Insts                        5219543                       # Number of instructions fetch has processed
system.cpu.fetch.Branches                     1552196                       # Number of branches that fetch encountered
system.cpu.fetch.predictedBranches            1023083                       # Number of branches that fetch has predicted taken
system.cpu.fetch.Cycles                      32458158                       # Number of cycles fetch has run and was not squashing or blocked
system.cpu.fetch.SquashCycles                   21108                       # Number of cycles fetch has spent squashing
system.cpu.fetch.TlbCycles                          5                       # Number of cycles fetch has spent waiting for tlb
system.cpu.fetch.MiscStallCycles                   91                       # Number of cycles fetch has spent waiting on interrupts, or bad addresses, or out of MSHRs
system.cpu.fetch.PendingTrapStallCycles           832                       # Number of stall cycles due to pending traps
system.cpu.fetch.PendingQuiesceStallCycles           13                       # Number of stall cycles due to pending quiesce instructions
system.cpu.fetch.CacheLines                   1041211                       # Number of cache lines fetched
system.cpu.fetch.IcacheSquashes                   279                       # Number of outstanding Icache misses that were squashed
system.cpu.fetch.rateDist::samples           32505350                       # Number of instructions fetched each cycle (Total)
system.cpu.fetch.rateDist::mean              0.758358                       # Number of instructions fetched each cycle (Total)
system.cpu.fetch.rateDist::stdev             0.951929                       # Number of instructions fetched each cycle (Total)
system.cpu.fetch.rateDist::underflows               0      0.00%      0.00% # Number of instructions fetched each cycle (Total)
system.cpu.fetch.rateDist::0                 19604007     60.31%     60.31% # Number of instructions fetched each cycle (Total)
system.cpu.fetch.rateDist::1                  1151986      3.54%     63.85% # Number of instructions fetched each cycle (Total)
system.cpu.fetch.rateDist::2                 11749357     36.15%    100.00% # Number of instructions fetched each cycle (Total)
system.cpu.fetch.rateDist::overflows                0      0.00%    100.00% # Number of instructions fetched each cycle (Total)
system.cpu.fetch.rateDist::min_value                0                       # Number of instructions fetched each cycle (Total)
system.cpu.fetch.rateDist::max_value                2                       # Number of instructions fetched each cycle (Total)
system.cpu.fetch.rateDist::total             32505350                       # Number of instructions fetched each cycle (Total)
system.cpu.fetch.branchRate                  0.047709                       # Number of branch fetches per cycle
system.cpu.fetch.rate                        0.160431                       # Number of inst fetches per cycle
system.cpu.decode.IdleCycles                  4084955                       # Number of cycles decode is idle
system.cpu.decode.BlockedCycles              16238663                       # Number of cycles decode is blocked
system.cpu.decode.RunCycles                     21183                       # Number of cycles decode is running
system.cpu.decode.UnblockCycles              12149995                       # Number of cycles decode is unblocking
system.cpu.decode.SquashCycles                  10554                       # Number of cycles decode is squashing
system.cpu.decode.DecodedInsts               24341311                       # Number of instructions handled by decode
system.cpu.rename.SquashCycles                  10554                       # Number of cycles rename is squashing
system.cpu.rename.IdleCycles                  8149282                       # Number of cycles rename is idle
system.cpu.rename.BlockCycles                    2118                       # Number of cycles rename is blocking
system.cpu.rename.serializeStallCycles            903                       # count of cycles rename stalled for serializing inst
system.cpu.rename.RunCycles                   8106791                       # Number of cycles rename is running
system.cpu.rename.UnblockCycles              16235702                       # Number of cycles rename is unblocking
system.cpu.rename.RenamedInsts               24325231                       # Number of instructions processed by rename
system.cpu.rename.IQFullEvents                     24                       # Number of times rename has blocked due to IQ full
system.cpu.rename.SQFullEvents                  17248                       # Number of times rename has blocked due to SQ full
system.cpu.rename.RenamedOperands            35373520                       # Number of destination operands rename has renamed
system.cpu.rename.RenameLookups              89836451                       # Number of register rename lookups that rename has made
system.cpu.rename.int_rename_lookups         54002199                       # Number of integer rename lookups
system.cpu.rename.fp_rename_lookups             18008                       # Number of floating rename lookups
system.cpu.rename.CommittedMaps              35346661                       # Number of HB maps that are committed
system.cpu.rename.UndoneMaps                    26859                       # Number of HB maps that are undone due to squashing
system.cpu.rename.serializingInsts                 14                       # count of serializing insts renamed
system.cpu.rename.tempSerializingInsts             13                       # count of temporary serializing insts renamed
system.cpu.rename.skidInsts                  16229591                       # count of insts added to the skid buffer
system.cpu.memDep0.insertedLoads              2544807                       # Number of loads inserted to the mem dependence unit.
system.cpu.memDep0.insertedStores              529047                       # Number of stores inserted to the mem dependence unit.
system.cpu.memDep0.conflictingLoads            468130                       # Number of conflicting loads.
system.cpu.memDep0.conflictingStores                4                       # Number of conflicting stores.
system.cpu.iq.iqInstsAdded                   24316396                       # Number of instructions added to the IQ (excludes non-spec)
system.cpu.iq.iqNonSpecInstsAdded                  30                       # Number of non-speculative instructions added to the IQ
system.cpu.iq.iqInstsIssued                  24315874                       # Number of instructions issued
system.cpu.iq.iqSquashedInstsIssued                17                       # Number of squashed instructions issued
system.cpu.iq.iqSquashedInstsExamined           14926                       # Number of squashed instructions iterated over during squash; mainly for profiling
system.cpu.iq.iqSquashedOperandsExamined        11878                       # Number of squashed operands that are examined and possibly removed from graph
system.cpu.iq.iqSquashedNonSpecRemoved             19                       # Number of squashed non-spec instructions that were removed
system.cpu.iq.issued_per_cycle::samples      32505350                       # Number of insts issued each cycle
system.cpu.iq.issued_per_cycle::mean         0.748058                       # Number of insts issued each cycle
system.cpu.iq.issued_per_cycle::stdev        0.527928                       # Number of insts issued each cycle
system.cpu.iq.issued_per_cycle::underflows            0      0.00%      0.00% # Number of insts issued each cycle
system.cpu.iq.issued_per_cycle::0             9656127     29.71%     29.71% # Number of insts issued each cycle
system.cpu.iq.issued_per_cycle::1            21382572     65.78%     95.49% # Number of insts issued each cycle
system.cpu.iq.issued_per_cycle::2             1466651      4.51%    100.00% # Number of insts issued each cycle
system.cpu.iq.issued_per_cycle::overflows            0      0.00%    100.00% # Number of insts issued each cycle
system.cpu.iq.issued_per_cycle::min_value            0                       # Number of insts issued each cycle
system.cpu.iq.issued_per_cycle::max_value            2                       # Number of insts issued each cycle
system.cpu.iq.issued_per_cycle::total        32505350                       # Number of insts issued each cycle
system.cpu.iq.fu_full::No_OpClass                   0      0.00%      0.00% # attempts to use FU when none available
system.cpu.iq.fu_full::IntAlu                       0      0.00%      0.00% # attempts to use FU when none available
system.cpu.iq.fu_full::IntMult                      0      0.00%      0.00% # attempts to use FU when none available
system.cpu.iq.fu_full::IntDiv                       0      0.00%      0.00% # attempts to use FU when none available
system.cpu.iq.fu_full::FloatAdd                     0      0.00%      0.00% # attempts to use FU when none available
system.cpu.iq.fu_full::FloatCmp                     0      0.00%      0.00% # attempts to use FU when none available
system.cpu.iq.fu_full::FloatCvt                     0      0.00%      0.00% # attempts to use FU when none available
system.cpu.iq.fu_full::FloatMult                    0      0.00%      0.00% # attempts to use FU when none available
system.cpu.iq.fu_full::FloatMultAcc                 0      0.00%      0.00% # attempts to use FU when none available
system.cpu.iq.fu_full::FloatDiv                     0      0.00%      0.00% # attempts to use FU when none available
system.cpu.iq.fu_full::FloatMisc                    0      0.00%      0.00% # attempts to use FU when none available
system.cpu.iq.fu_full::FloatSqrt                    0      0.00%      0.00% # attempts to use FU when none available
system.cpu.iq.fu_full::SimdAdd                      1      0.00%      0.00% # attempts to use FU when none available
system.cpu.iq.fu_full::SimdAddAcc                   0      0.00%      0.00% # attempts to use FU when none available
system.cpu.iq.fu_full::SimdAlu                      0      0.00%      0.00% # attempts to use FU when none available
system.cpu.iq.fu_full::SimdCmp                      0      0.00%      0.00% # attempts to use FU when none available
system.cpu.iq.fu_full::SimdCvt                      2      0.00%      0.00% # attempts to use FU when none available
system.cpu.iq.fu_full::SimdMisc                   162      0.04%      0.04% # attempts to use FU when none available
system.cpu.iq.fu_full::SimdMult                     0      0.00%      0.04% # attempts to use FU when none available
system.cpu.iq.fu_full::SimdMultAcc                  0      0.00%      0.04% # attempts to use FU when none available
system.cpu.iq.fu_full::SimdShift                    0      0.00%      0.04% # attempts to use FU when none available
system.cpu.iq.fu_full::SimdShiftAcc                 0      0.00%      0.04% # attempts to use FU when none available
system.cpu.iq.fu_full::SimdSqrt                     0      0.00%      0.04% # attempts to use FU when none available
system.cpu.iq.fu_full::SimdFloatAdd                 0      0.00%      0.04% # attempts to use FU when none available
system.cpu.iq.fu_full::SimdFloatAlu                 0      0.00%      0.04% # attempts to use FU when none available
system.cpu.iq.fu_full::SimdFloatCmp                 0      0.00%      0.04% # attempts to use FU when none available
system.cpu.iq.fu_full::SimdFloatCvt                 0      0.00%      0.04% # attempts to use FU when none available
system.cpu.iq.fu_full::SimdFloatDiv                 0      0.00%      0.04% # attempts to use FU when none available
system.cpu.iq.fu_full::SimdFloatMisc                0      0.00%      0.04% # attempts to use FU when none available
system.cpu.iq.fu_full::SimdFloatMult                0      0.00%      0.04% # attempts to use FU when none available
system.cpu.iq.fu_full::SimdFloatMultAcc             0      0.00%      0.04% # attempts to use FU when none available
system.cpu.iq.fu_full::SimdFloatSqrt                0      0.00%      0.04% # attempts to use FU when none available
system.cpu.iq.fu_full::SimdAes                      0      0.00%      0.04% # attempts to use FU when none available
system.cpu.iq.fu_full::SimdAesMix                   0      0.00%      0.04% # attempts to use FU when none available
system.cpu.iq.fu_full::SimdSha1Hash                 0      0.00%      0.04% # attempts to use FU when none available
system.cpu.iq.fu_full::SimdSha1Hash2                0      0.00%      0.04% # attempts to use FU when none available
system.cpu.iq.fu_full::SimdSha256Hash               0      0.00%      0.04% # attempts to use FU when none available
system.cpu.iq.fu_full::SimdSha256Hash2              0      0.00%      0.04% # attempts to use FU when none available
system.cpu.iq.fu_full::SimdShaSigma2                0      0.00%      0.04% # attempts to use FU when none available
system.cpu.iq.fu_full::SimdShaSigma3                0      0.00%      0.04% # attempts to use FU when none available
system.cpu.iq.fu_full::MemRead                 442450     99.96%    100.00% # attempts to use FU when none available
system.cpu.iq.fu_full::MemWrite                     9      0.00%    100.00% # attempts to use FU when none available
system.cpu.iq.fu_full::FloatMemRead                 0      0.00%    100.00% # attempts to use FU when none available
system.cpu.iq.fu_full::FloatMemWrite                0      0.00%    100.00% # attempts to use FU when none available
system.cpu.iq.fu_full::IprAccess                    0      0.00%    100.00% # attempts to use FU when none available
system.cpu.iq.fu_full::InstPrefetch                 0      0.00%    100.00% # attempts to use FU when none available
system.cpu.iq.FU_type_0::No_OpClass            502203      2.07%      2.07% # Type of FU issued
system.cpu.iq.FU_type_0::IntAlu              17226436     70.84%     72.91% # Type of FU issued
system.cpu.iq.FU_type_0::IntMult                  479      0.00%     72.91% # Type of FU issued
system.cpu.iq.FU_type_0::IntDiv               3505958     14.42%     87.33% # Type of FU issued
system.cpu.iq.FU_type_0::FloatAdd                 346      0.00%     87.33% # Type of FU issued
system.cpu.iq.FU_type_0::FloatCmp                   0      0.00%     87.33% # Type of FU issued
system.cpu.iq.FU_type_0::FloatCvt                   0      0.00%     87.33% # Type of FU issued
system.cpu.iq.FU_type_0::FloatMult                  0      0.00%     87.33% # Type of FU issued
system.cpu.iq.FU_type_0::FloatMultAcc               0      0.00%     87.33% # Type of FU issued
system.cpu.iq.FU_type_0::FloatDiv                   0      0.00%     87.33% # Type of FU issued
system.cpu.iq.FU_type_0::FloatMisc                  0      0.00%     87.33% # Type of FU issued
system.cpu.iq.FU_type_0::FloatSqrt                  0      0.00%     87.33% # Type of FU issued
system.cpu.iq.FU_type_0::SimdAdd                  374      0.00%     87.33% # Type of FU issued
system.cpu.iq.FU_type_0::SimdAddAcc                 0      0.00%     87.33% # Type of FU issued
system.cpu.iq.FU_type_0::SimdAlu                 1412      0.01%     87.34% # Type of FU issued
system.cpu.iq.FU_type_0::SimdCmp                    0      0.00%     87.34% # Type of FU issued
system.cpu.iq.FU_type_0::SimdCvt                 1452      0.01%     87.34% # Type of FU issued
system.cpu.iq.FU_type_0::SimdMisc                3239      0.01%     87.36% # Type of FU issued
system.cpu.iq.FU_type_0::SimdMult                   0      0.00%     87.36% # Type of FU issued
system.cpu.iq.FU_type_0::SimdMultAcc                0      0.00%     87.36% # Type of FU issued
system.cpu.iq.FU_type_0::SimdShift                186      0.00%     87.36% # Type of FU issued
system.cpu.iq.FU_type_0::SimdShiftAcc               0      0.00%     87.36% # Type of FU issued
system.cpu.iq.FU_type_0::SimdSqrt                   0      0.00%     87.36% # Type of FU issued
system.cpu.iq.FU_type_0::SimdFloatAdd               0      0.00%     87.36% # Type of FU issued
system.cpu.iq.FU_type_0::SimdFloatAlu               0      0.00%     87.36% # Type of FU issued
system.cpu.iq.FU_type_0::SimdFloatCmp               0      0.00%     87.36% # Type of FU issued
system.cpu.iq.FU_type_0::SimdFloatCvt               0      0.00%     87.36% # Type of FU issued
system.cpu.iq.FU_type_0::SimdFloatDiv               0      0.00%     87.36% # Type of FU issued
system.cpu.iq.FU_type_0::SimdFloatMisc              0      0.00%     87.36% # Type of FU issued
system.cpu.iq.FU_type_0::SimdFloatMult              0      0.00%     87.36% # Type of FU issued
system.cpu.iq.FU_type_0::SimdFloatMultAcc            0      0.00%     87.36% # Type of FU issued
system.cpu.iq.FU_type_0::SimdFloatSqrt              0      0.00%     87.36% # Type of FU issued
system.cpu.iq.FU_type_0::SimdAes                    0      0.00%     87.36% # Type of FU issued
system.cpu.iq.FU_type_0::SimdAesMix                 0      0.00%     87.36% # Type of FU issued
system.cpu.iq.FU_type_0::SimdSha1Hash               0      0.00%     87.36% # Type of FU issued
system.cpu.iq.FU_type_0::SimdSha1Hash2              0      0.00%     87.36% # Type of FU issued
system.cpu.iq.FU_type_0::SimdSha256Hash             0      0.00%     87.36% # Type of FU issued
system.cpu.iq.FU_type_0::SimdSha256Hash2            0      0.00%     87.36% # Type of FU issued
system.cpu.iq.FU_type_0::SimdShaSigma2              0      0.00%     87.36% # Type of FU issued
system.cpu.iq.FU_type_0::SimdShaSigma3              0      0.00%     87.36% # Type of FU issued
system.cpu.iq.FU_type_0::MemRead              2543708     10.46%     97.82% # Type of FU issued
system.cpu.iq.FU_type_0::MemWrite              528193      2.17%     99.99% # Type of FU issued
system.cpu.iq.FU_type_0::FloatMemRead            1066      0.00%    100.00% # Type of FU issued
system.cpu.iq.FU_type_0::FloatMemWrite            822      0.00%    100.00% # Type of FU issued
system.cpu.iq.FU_type_0::IprAccess                  0      0.00%    100.00% # Type of FU issued
system.cpu.iq.FU_type_0::InstPrefetch               0      0.00%    100.00% # Type of FU issued
system.cpu.iq.FU_type_0::total               24315874                       # Type of FU issued
system.cpu.iq.rate                           0.747386                       # Inst issue rate
system.cpu.iq.fu_busy_cnt                      442624                       # FU busy when requested
system.cpu.iq.fu_busy_rate                   0.018203                       # FU busy rate (busy events/executed inst)
system.cpu.iq.int_inst_queue_reads           81558736                       # Number of integer instruction queue reads
system.cpu.iq.int_inst_queue_writes          24320862                       # Number of integer instruction queue writes
system.cpu.iq.int_inst_queue_wakeup_accesses     24296016                       # Number of integer instruction queue wakeup accesses
system.cpu.iq.fp_inst_queue_reads               21003                       # Number of floating instruction queue reads
system.cpu.iq.fp_inst_queue_writes              10495                       # Number of floating instruction queue writes
system.cpu.iq.fp_inst_queue_wakeup_accesses        10394                       # Number of floating instruction queue wakeup accesses
system.cpu.iq.vec_inst_queue_reads                  0                       # Number of vector instruction queue reads
system.cpu.iq.vec_inst_queue_writes                 0                       # Number of vector instruction queue writes
system.cpu.iq.vec_inst_queue_wakeup_accesses            0                       # Number of vector instruction queue wakeup accesses
system.cpu.iq.int_alu_accesses               24245711                       # Number of integer alu accesses
system.cpu.iq.fp_alu_accesses                   10584                       # Number of floating point alu accesses
system.cpu.iq.vec_alu_accesses                      0                       # Number of vector alu accesses
system.cpu.iew.lsq.thread0.forwLoads           501560                       # Number of loads that had data forwarded from stores
system.cpu.iew.lsq.thread0.invAddrLoads             0                       # Number of loads ignored due to an invalid address
system.cpu.iew.lsq.thread0.squashedLoads         3335                       # Number of loads squashed
system.cpu.iew.lsq.thread0.ignoredResponses            3                       # Number of memory responses ignored because the instruction is squashed
system.cpu.iew.lsq.thread0.memOrderViolation            5                       # Number of memory ordering violations
system.cpu.iew.lsq.thread0.squashedStores          296                       # Number of stores squashed
system.cpu.iew.lsq.thread0.invAddrSwpfs             0                       # Number of software prefetches ignored due to an invalid address
system.cpu.iew.lsq.thread0.blockedLoads             0                       # Number of blocked loads due to partial load-store forwarding
system.cpu.iew.lsq.thread0.rescheduledLoads            0                       # Number of loads that were rescheduled
system.cpu.iew.lsq.thread0.cacheBlocked             7                       # Number of times an access to memory failed due to the cache being blocked
system.cpu.iew.iewIdleCycles                        0                       # Number of cycles IEW is idle
system.cpu.iew.iewSquashCycles                  10554                       # Number of cycles IEW is squashing
system.cpu.iew.iewBlockCycles                    1112                       # Number of cycles IEW is blocking
system.cpu.iew.iewUnblockCycles                   287                       # Number of cycles IEW is unblocking
system.cpu.iew.iewDispatchedInsts            24316426                       # Number of instructions dispatched to IQ
system.cpu.iew.iewDispSquashedInsts                 0                       # Number of squashed instructions skipped by dispatch
system.cpu.iew.iewDispLoadInsts               2544807                       # Number of dispatched load instructions
system.cpu.iew.iewDispStoreInsts               529047                       # Number of dispatched store instructions
system.cpu.iew.iewDispNonSpecInsts                 17                       # Number of dispatched non-speculative instructions
system.cpu.iew.iewIQFullEvents                      0                       # Number of times the IQ has become full, causing a stall
system.cpu.iew.iewLSQFullEvents                   272                       # Number of times the LSQ has become full, causing a stall
system.cpu.iew.memOrderViolationEvents              5                       # Number of memory order violations
system.cpu.iew.predictedTakenIncorrect           7318                       # Number of branches that were predicted taken incorrectly
system.cpu.iew.predictedNotTakenIncorrect         3254                       # Number of branches that were predicted not taken incorrectly
system.cpu.iew.branchMispredicts                10572                       # Number of branch mispredicts detected at execute
system.cpu.iew.iewExecutedInsts              24306899                       # Number of executed instructions
system.cpu.iew.iewExecLoadInsts               2541983                       # Number of load instructions executed
system.cpu.iew.iewExecSquashedInsts              8975                       # Number of squashed instructions skipped in execute
system.cpu.iew.exec_swp                             0                       # number of swp insts executed
system.cpu.iew.exec_nop                             0                       # number of nop insts executed
system.cpu.iew.exec_refs                      3070922                       # number of memory reference insts executed
system.cpu.iew.exec_branches                  1530295                       # Number of branches executed
system.cpu.iew.exec_stores                     528939                       # Number of stores executed
system.cpu.iew.exec_rate                     0.747110                       # Inst execution rate
system.cpu.iew.wb_sent                       24306545                       # cumulative count of insts sent to commit
system.cpu.iew.wb_count                      24306410                       # cumulative count of insts written-back
system.cpu.iew.wb_producers                  11607283                       # num instructions producing a value
system.cpu.iew.wb_consumers                  18210573                       # num instructions consuming a value
system.cpu.iew.wb_rate                       0.747095                       # insts written-back per cycle
system.cpu.iew.wb_fanout                     0.637393                       # average fanout of values written-back
system.cpu.commit.commitSquashedInsts            5783                       # The number of squashed insts skipped by commit
system.cpu.commit.commitNonSpecStalls              11                       # The number of times commit has been forced to stall to communicate backwards
system.cpu.commit.branchMispredicts             10548                       # The number of times a branch was mispredicted
system.cpu.commit.committed_per_cycle::samples     32494700                       # Number of insts commited each cycle
system.cpu.commit.committed_per_cycle::mean     0.747860                       # Number of insts commited each cycle
system.cpu.commit.committed_per_cycle::stdev     0.555435                       # Number of insts commited each cycle
system.cpu.commit.committed_per_cycle::underflows            0      0.00%      0.00% # Number of insts commited each cycle
system.cpu.commit.committed_per_cycle::0     10141954     31.21%     31.21% # Number of insts commited each cycle
system.cpu.commit.committed_per_cycle::1     20403993     62.79%     94.00% # Number of insts commited each cycle
system.cpu.commit.committed_per_cycle::2      1948753      6.00%    100.00% # Number of insts commited each cycle
system.cpu.commit.committed_per_cycle::overflows            0      0.00%    100.00% # Number of insts commited each cycle
system.cpu.commit.committed_per_cycle::min_value            0                       # Number of insts commited each cycle
system.cpu.commit.committed_per_cycle::max_value            2                       # Number of insts commited each cycle
system.cpu.commit.committed_per_cycle::total     32494700                       # Number of insts commited each cycle
system.cpu.commit.committedInsts              5132577                       # Number of instructions committed
system.cpu.commit.committedOps               24301499                       # Number of ops (including micro ops) committed
system.cpu.commit.swp_count                         0                       # Number of s/w prefetches committed
system.cpu.commit.refs                        3070223                       # Number of memory references committed
system.cpu.commit.loads                       2541472                       # Number of loads committed
system.cpu.commit.membars                           0                       # Number of memory barriers committed
system.cpu.commit.branches                    1530142                       # Number of branches committed
system.cpu.commit.vec_insts                         0                       # Number of committed Vector instructions.
system.cpu.commit.fp_insts                      10343                       # Number of committed floating point instructions.
system.cpu.commit.int_insts                  23791918                       # Number of committed integer instructions.
system.cpu.commit.function_calls                 1819                       # Number of function calls committed.
system.cpu.commit.op_class_0::No_OpClass       501944      2.07%      2.07% # Class of committed instruction
system.cpu.commit.op_class_0::IntAlu         17216319     70.84%     72.91% # Class of committed instruction
system.cpu.commit.op_class_0::IntMult             479      0.00%     72.91% # Class of committed instruction
system.cpu.commit.op_class_0::IntDiv          3505526     14.43%     87.34% # Class of committed instruction
system.cpu.commit.op_class_0::FloatAdd            346      0.00%     87.34% # Class of committed instruction
system.cpu.commit.op_class_0::FloatCmp              0      0.00%     87.34% # Class of committed instruction
system.cpu.commit.op_class_0::FloatCvt              0      0.00%     87.34% # Class of committed instruction
system.cpu.commit.op_class_0::FloatMult             0      0.00%     87.34% # Class of committed instruction
system.cpu.commit.op_class_0::FloatMultAcc            0      0.00%     87.34% # Class of committed instruction
system.cpu.commit.op_class_0::FloatDiv              0      0.00%     87.34% # Class of committed instruction
system.cpu.commit.op_class_0::FloatMisc             0      0.00%     87.34% # Class of committed instruction
system.cpu.commit.op_class_0::FloatSqrt             0      0.00%     87.34% # Class of committed instruction
system.cpu.commit.op_class_0::SimdAdd             374      0.00%     87.34% # Class of committed instruction
system.cpu.commit.op_class_0::SimdAddAcc            0      0.00%     87.34% # Class of committed instruction
system.cpu.commit.op_class_0::SimdAlu            1412      0.01%     87.35% # Class of committed instruction
system.cpu.commit.op_class_0::SimdCmp               0      0.00%     87.35% # Class of committed instruction
system.cpu.commit.op_class_0::SimdCvt            1452      0.01%     87.35% # Class of committed instruction
system.cpu.commit.op_class_0::SimdMisc           3238      0.01%     87.37% # Class of committed instruction
system.cpu.commit.op_class_0::SimdMult              0      0.00%     87.37% # Class of committed instruction
system.cpu.commit.op_class_0::SimdMultAcc            0      0.00%     87.37% # Class of committed instruction
system.cpu.commit.op_class_0::SimdShift           186      0.00%     87.37% # Class of committed instruction
system.cpu.commit.op_class_0::SimdShiftAcc            0      0.00%     87.37% # Class of committed instruction
system.cpu.commit.op_class_0::SimdSqrt              0      0.00%     87.37% # Class of committed instruction
system.cpu.commit.op_class_0::SimdFloatAdd            0      0.00%     87.37% # Class of committed instruction
system.cpu.commit.op_class_0::SimdFloatAlu            0      0.00%     87.37% # Class of committed instruction
system.cpu.commit.op_class_0::SimdFloatCmp            0      0.00%     87.37% # Class of committed instruction
system.cpu.commit.op_class_0::SimdFloatCvt            0      0.00%     87.37% # Class of committed instruction
system.cpu.commit.op_class_0::SimdFloatDiv            0      0.00%     87.37% # Class of committed instruction
system.cpu.commit.op_class_0::SimdFloatMisc            0      0.00%     87.37% # Class of committed instruction
system.cpu.commit.op_class_0::SimdFloatMult            0      0.00%     87.37% # Class of committed instruction
system.cpu.commit.op_class_0::SimdFloatMultAcc            0      0.00%     87.37% # Class of committed instruction
system.cpu.commit.op_class_0::SimdFloatSqrt            0      0.00%     87.37% # Class of committed instruction
system.cpu.commit.op_class_0::SimdAes               0      0.00%     87.37% # Class of committed instruction
system.cpu.commit.op_class_0::SimdAesMix            0      0.00%     87.37% # Class of committed instruction
system.cpu.commit.op_class_0::SimdSha1Hash            0      0.00%     87.37% # Class of committed instruction
system.cpu.commit.op_class_0::SimdSha1Hash2            0      0.00%     87.37% # Class of committed instruction
system.cpu.commit.op_class_0::SimdSha256Hash            0      0.00%     87.37% # Class of committed instruction
system.cpu.commit.op_class_0::SimdSha256Hash2            0      0.00%     87.37% # Class of committed instruction
system.cpu.commit.op_class_0::SimdShaSigma2            0      0.00%     87.37% # Class of committed instruction
system.cpu.commit.op_class_0::SimdShaSigma3            0      0.00%     87.37% # Class of committed instruction
system.cpu.commit.op_class_0::MemRead         2540408     10.45%     97.82% # Class of committed instruction
system.cpu.commit.op_class_0::MemWrite         528000      2.17%     99.99% # Class of committed instruction
system.cpu.commit.op_class_0::FloatMemRead         1064      0.00%    100.00% # Class of committed instruction
system.cpu.commit.op_class_0::FloatMemWrite          751      0.00%    100.00% # Class of committed instruction
system.cpu.commit.op_class_0::IprAccess             0      0.00%    100.00% # Class of committed instruction
system.cpu.commit.op_class_0::InstPrefetch            0      0.00%    100.00% # Class of committed instruction
system.cpu.commit.op_class_0::total          24301499                       # Class of committed instruction
system.cpu.commit.bw_lim_events               1948753                       # number cycles where commit BW limit reached
system.cpu.rob.rob_reads                     54853229                       # The number of ROB reads
system.cpu.rob.rob_writes                    48625214                       # The number of ROB writes
system.cpu.timesIdled                             326                       # Number of times that the entire CPU went into an idle state and unscheduled itself
system.cpu.idleCycles                           29208                       # Total number of cycles that the CPU has spent unscheduled due to idling
system.cpu.committedInsts                     5132577                       # Number of Instructions Simulated
system.cpu.committedOps                      24301499                       # Number of Ops (including micro ops) Simulated
system.cpu.cpi                               6.338835                       # CPI: Cycles Per Instruction
system.cpu.cpi_total                         6.338835                       # CPI: Total CPI of All Threads
system.cpu.ipc                               0.157758                       # IPC: Instructions Per Cycle
system.cpu.ipc_total                         0.157758                       # IPC: Total IPC of All Threads
system.cpu.int_regfile_reads                 53975030                       # number of integer regfile reads
system.cpu.int_regfile_writes                29249468                       # number of integer regfile writes
system.cpu.fp_regfile_reads                     17931                       # number of floating regfile reads
system.cpu.fp_regfile_writes                     8873                       # number of floating regfile writes
system.cpu.cc_regfile_reads                  30676533                       # number of cc regfile reads
system.cpu.cc_regfile_writes                  6093756                       # number of cc regfile writes
system.cpu.misc_regfile_reads                 5129634                       # number of misc regfile reads
system.cpu.dcache.tags.pwrStateResidencyTicks::UNDEFINED  16267278500                       # Cumulative time (in ticks) in various power states
system.cpu.dcache.tags.tagsinuse           234.394625                       # Cycle average of tags in use
system.cpu.dcache.tags.total_refs             2569072                       # Total number of references to valid blocks.
system.cpu.dcache.tags.sampled_refs               251                       # Sample count of references to valid blocks.
system.cpu.dcache.tags.avg_refs          10235.346614                       # Average number of references to valid blocks.
system.cpu.dcache.tags.warmup_cycle            168000                       # Cycle when the warmup percentage was hit.
system.cpu.dcache.tags.occ_blocks::.cpu.data   234.394625                       # Average occupied blocks per requestor
system.cpu.dcache.tags.occ_percent::.cpu.data     0.457802                       # Average percentage of cache occupancy
system.cpu.dcache.tags.occ_percent::total     0.457802                       # Average percentage of cache occupancy
system.cpu.dcache.tags.occ_task_id_blocks::1024          251                       # Occupied blocks per task id
system.cpu.dcache.tags.age_task_id_blocks_1024::0           13                       # Occupied blocks per task id
system.cpu.dcache.tags.age_task_id_blocks_1024::2            1                       # Occupied blocks per task id
system.cpu.dcache.tags.age_task_id_blocks_1024::3            3                       # Occupied blocks per task id
system.cpu.dcache.tags.age_task_id_blocks_1024::4          234                       # Occupied blocks per task id
system.cpu.dcache.tags.occ_task_id_percent::1024     0.490234                       # Percentage of cache occupancy per task id
system.cpu.dcache.tags.tag_accesses          20553595                       # Number of tag accesses
system.cpu.dcache.tags.data_accesses         20553595                       # Number of data accesses
system.cpu.dcache.pwrStateResidencyTicks::UNDEFINED  16267278500                       # Cumulative time (in ticks) in various power states
system.cpu.dcache.ReadReq_hits::.cpu.data      2040196                       # number of ReadReq hits
system.cpu.dcache.ReadReq_hits::total         2040196                       # number of ReadReq hits
system.cpu.dcache.WriteReq_hits::.cpu.data       528625                       # number of WriteReq hits
system.cpu.dcache.WriteReq_hits::total         528625                       # number of WriteReq hits
system.cpu.dcache.demand_hits::.cpu.data      2568821                       # number of demand (read+write) hits
system.cpu.dcache.demand_hits::total          2568821                       # number of demand (read+write) hits
system.cpu.dcache.overall_hits::.cpu.data      2568821                       # number of overall hits
system.cpu.dcache.overall_hits::total         2568821                       # number of overall hits
system.cpu.dcache.ReadReq_misses::.cpu.data          210                       # number of ReadReq misses
system.cpu.dcache.ReadReq_misses::total           210                       # number of ReadReq misses
system.cpu.dcache.WriteReq_misses::.cpu.data          137                       # number of WriteReq misses
system.cpu.dcache.WriteReq_misses::total          137                       # number of WriteReq misses
system.cpu.dcache.demand_misses::.cpu.data          347                       # number of demand (read+write) misses
system.cpu.dcache.demand_misses::total            347                       # number of demand (read+write) misses
system.cpu.dcache.overall_misses::.cpu.data          347                       # number of overall misses
system.cpu.dcache.overall_misses::total           347                       # number of overall misses
system.cpu.dcache.ReadReq_miss_latency::.cpu.data     15803000                       # number of ReadReq miss cycles
system.cpu.dcache.ReadReq_miss_latency::total     15803000                       # number of ReadReq miss cycles
system.cpu.dcache.WriteReq_miss_latency::.cpu.data     16441500                       # number of WriteReq miss cycles
system.cpu.dcache.WriteReq_miss_latency::total     16441500                       # number of WriteReq miss cycles
system.cpu.dcache.demand_miss_latency::.cpu.data     32244500                       # number of demand (read+write) miss cycles
system.cpu.dcache.demand_miss_latency::total     32244500                       # number of demand (read+write) miss cycles
system.cpu.dcache.overall_miss_latency::.cpu.data     32244500                       # number of overall miss cycles
system.cpu.dcache.overall_miss_latency::total     32244500                       # number of overall miss cycles
system.cpu.dcache.ReadReq_accesses::.cpu.data      2040406                       # number of ReadReq accesses(hits+misses)
system.cpu.dcache.ReadReq_accesses::total      2040406                       # number of ReadReq accesses(hits+misses)
system.cpu.dcache.WriteReq_accesses::.cpu.data       528762                       # number of WriteReq accesses(hits+misses)
system.cpu.dcache.WriteReq_accesses::total       528762                       # number of WriteReq accesses(hits+misses)
system.cpu.dcache.demand_accesses::.cpu.data      2569168                       # number of demand (read+write) accesses
system.cpu.dcache.demand_accesses::total      2569168                       # number of demand (read+write) accesses
system.cpu.dcache.overall_accesses::.cpu.data      2569168                       # number of overall (read+write) accesses
system.cpu.dcache.overall_accesses::total      2569168                       # number of overall (read+write) accesses
system.cpu.dcache.ReadReq_miss_rate::.cpu.data     0.000103                       # miss rate for ReadReq accesses
system.cpu.dcache.ReadReq_miss_rate::total     0.000103                       # miss rate for ReadReq accesses
system.cpu.dcache.WriteReq_miss_rate::.cpu.data     0.000259                       # miss rate for WriteReq accesses
system.cpu.dcache.WriteReq_miss_rate::total     0.000259                       # miss rate for WriteReq accesses
system.cpu.dcache.demand_miss_rate::.cpu.data     0.000135                       # miss rate for demand accesses
system.cpu.dcache.demand_miss_rate::total     0.000135                       # miss rate for demand accesses
system.cpu.dcache.overall_miss_rate::.cpu.data     0.000135                       # miss rate for overall accesses
system.cpu.dcache.overall_miss_rate::total     0.000135                       # miss rate for overall accesses
system.cpu.dcache.ReadReq_avg_miss_latency::.cpu.data 75252.380952                       # average ReadReq miss latency
system.cpu.dcache.ReadReq_avg_miss_latency::total 75252.380952                       # average ReadReq miss latency
system.cpu.dcache.WriteReq_avg_miss_latency::.cpu.data 120010.948905                       # average WriteReq miss latency
system.cpu.dcache.WriteReq_avg_miss_latency::total 120010.948905                       # average WriteReq miss latency
system.cpu.dcache.demand_avg_miss_latency::.cpu.data 92923.631124                       # average overall miss latency
system.cpu.dcache.demand_avg_miss_latency::total 92923.631124                       # average overall miss latency
system.cpu.dcache.overall_avg_miss_latency::.cpu.data 92923.631124                       # average overall miss latency
system.cpu.dcache.overall_avg_miss_latency::total 92923.631124                       # average overall miss latency
system.cpu.dcache.blocked_cycles::no_mshrs          384                       # number of cycles access was blocked
[...]
system.l3bus.snoop_fanout::min_value                0                       # Request fanout histogram
system.l3bus.snoop_fanout::max_value                0                       # Request fanout histogram
system.l3bus.snoop_fanout::total                  784                       # Request fanout histogram
system.l3bus.reqLayer0.occupancy               392000                       # Layer occupancy (ticks)
system.l3bus.reqLayer0.utilization                0.0                       # Layer utilization (%)
system.l3bus.respLayer0.occupancy             1960000                       # Layer occupancy (ticks)
system.l3bus.respLayer0.utilization               0.0                       # Layer utilization (%)
system.l3cache.tags.pwrStateResidencyTicks::UNDEFINED  16267278500                       # Cumulative time (in ticks) in various power states
system.l3cache.tags.tagsinuse              696.750530                       # Cycle average of tags in use
system.l3cache.tags.total_refs                    784                       # Total number of references to valid blocks.
system.l3cache.tags.sampled_refs                  784                       # Sample count of references to valid blocks.
system.l3cache.tags.avg_refs                        1                       # Average number of references to valid blocks.
system.l3cache.tags.warmup_cycle                76000                       # Cycle when the warmup percentage was hit.
system.l3cache.tags.occ_blocks::.cpu.inst   462.355813                       # Average occupied blocks per requestor
system.l3cache.tags.occ_blocks::.cpu.data   234.394717                       # Average occupied blocks per requestor
system.l3cache.tags.occ_percent::.cpu.inst     0.014110                       # Average percentage of cache occupancy
system.l3cache.tags.occ_percent::.cpu.data     0.007153                       # Average percentage of cache occupancy
system.l3cache.tags.occ_percent::total       0.021263                       # Average percentage of cache occupancy
system.l3cache.tags.occ_task_id_blocks::1024          784                       # Occupied blocks per task id
system.l3cache.tags.age_task_id_blocks_1024::0           82                       # Occupied blocks per task id
system.l3cache.tags.age_task_id_blocks_1024::2            1                       # Occupied blocks per task id
system.l3cache.tags.age_task_id_blocks_1024::3            3                       # Occupied blocks per task id
system.l3cache.tags.age_task_id_blocks_1024::4          698                       # Occupied blocks per task id
system.l3cache.tags.occ_task_id_percent::1024     0.023926                       # Percentage of cache occupancy per task id
system.l3cache.tags.tag_accesses                13328                       # Number of tag accesses
system.l3cache.tags.data_accesses               13328                       # Number of data accesses
system.l3cache.pwrStateResidencyTicks::UNDEFINED  16267278500                       # Cumulative time (in ticks) in various power states
system.l3cache.ReadExReq_misses::.cpu.data          136                       # number of ReadExReq misses
system.l3cache.ReadExReq_misses::total            136                       # number of ReadExReq misses
system.l3cache.ReadSharedReq_misses::.cpu.inst          533                       # number of ReadSharedReq misses
system.l3cache.ReadSharedReq_misses::.cpu.data          115                       # number of ReadSharedReq misses
system.l3cache.ReadSharedReq_misses::total          648                       # number of ReadSharedReq misses
system.l3cache.demand_misses::.cpu.inst           533                       # number of demand (read+write) misses
system.l3cache.demand_misses::.cpu.data           251                       # number of demand (read+write) misses
system.l3cache.demand_misses::total               784                       # number of demand (read+write) misses
system.l3cache.overall_misses::.cpu.inst          533                       # number of overall misses
system.l3cache.overall_misses::.cpu.data          251                       # number of overall misses
system.l3cache.overall_misses::total              784                       # number of overall misses
system.l3cache.ReadExReq_miss_latency::.cpu.data     14581000                       # number of ReadExReq miss cycles
system.l3cache.ReadExReq_miss_latency::total     14581000                       # number of ReadExReq miss cycles
system.l3cache.ReadSharedReq_miss_latency::.cpu.inst     40607500                       # number of ReadSharedReq miss cycles
system.l3cache.ReadSharedReq_miss_latency::.cpu.data      8515000                       # number of ReadSharedReq miss cycles
system.l3cache.ReadSharedReq_miss_latency::total     49122500                       # number of ReadSharedReq miss cycles
system.l3cache.demand_miss_latency::.cpu.inst     40607500                       # number of demand (read+write) miss cycles
system.l3cache.demand_miss_latency::.cpu.data     23096000                       # number of demand (read+write) miss cycles
system.l3cache.demand_miss_latency::total     63703500                       # number of demand (read+write) miss cycles
system.l3cache.overall_miss_latency::.cpu.inst     40607500                       # number of overall miss cycles
system.l3cache.overall_miss_latency::.cpu.data     23096000                       # number of overall miss cycles
system.l3cache.overall_miss_latency::total     63703500                       # number of overall miss cycles
system.l3cache.ReadExReq_accesses::.cpu.data          136                       # number of ReadExReq accesses(hits+misses)
system.l3cache.ReadExReq_accesses::total          136                       # number of ReadExReq accesses(hits+misses)
system.l3cache.ReadSharedReq_accesses::.cpu.inst          533                       # number of ReadSharedReq accesses(hits+misses)
system.l3cache.ReadSharedReq_accesses::.cpu.data          115                       # number of ReadSharedReq accesses(hits+misses)
system.l3cache.ReadSharedReq_accesses::total          648                       # number of ReadSharedReq accesses(hits+misses)
system.l3cache.demand_accesses::.cpu.inst          533                       # number of demand (read+write) accesses
system.l3cache.demand_accesses::.cpu.data          251                       # number of demand (read+write) accesses
system.l3cache.demand_accesses::total             784                       # number of demand (read+write) accesses
system.l3cache.overall_accesses::.cpu.inst          533                       # number of overall (read+write) accesses
system.l3cache.overall_accesses::.cpu.data          251                       # number of overall (read+write) accesses
system.l3cache.overall_accesses::total            784                       # number of overall (read+write) accesses
system.l3cache.ReadExReq_miss_rate::.cpu.data            1                       # miss rate for ReadExReq accesses
system.l3cache.ReadExReq_miss_rate::total            1                       # miss rate for ReadExReq accesses
system.l3cache.ReadSharedReq_miss_rate::.cpu.inst            1                       # miss rate for ReadSharedReq accesses
system.l3cache.ReadSharedReq_miss_rate::.cpu.data            1                       # miss rate for ReadSharedReq accesses
system.l3cache.ReadSharedReq_miss_rate::total            1                       # miss rate for ReadSharedReq accesses
system.l3cache.demand_miss_rate::.cpu.inst            1                       # miss rate for demand accesses
system.l3cache.demand_miss_rate::.cpu.data            1                       # miss rate for demand accesses
system.l3cache.demand_miss_rate::total              1                       # miss rate for demand accesses
system.l3cache.overall_miss_rate::.cpu.inst            1                       # miss rate for overall accesses
system.l3cache.overall_miss_rate::.cpu.data            1                       # miss rate for overall accesses
system.l3cache.overall_miss_rate::total             1                       # miss rate for overall accesses
system.l3cache.ReadExReq_avg_miss_latency::.cpu.data 107213.235294                       # average ReadExReq miss latency
system.l3cache.ReadExReq_avg_miss_latency::total 107213.235294                       # average ReadExReq miss latency
system.l3cache.ReadSharedReq_avg_miss_latency::.cpu.inst 76186.679174                       # average ReadSharedReq miss latency
system.l3cache.ReadSharedReq_avg_miss_latency::.cpu.data 74043.478261                       # average ReadSharedReq miss latency
system.l3cache.ReadSharedReq_avg_miss_latency::total 75806.327160                       # average ReadSharedReq miss latency
system.l3cache.demand_avg_miss_latency::.cpu.inst 76186.679174                       # average overall miss latency
system.l3cache.demand_avg_miss_latency::.cpu.data 92015.936255                       # average overall miss latency
system.l3cache.demand_avg_miss_latency::total 81254.464286                       # average overall miss latency
system.l3cache.overall_avg_miss_latency::.cpu.inst 76186.679174                       # average overall miss latency
system.l3cache.overall_avg_miss_latency::.cpu.data 92015.936255                       # average overall miss latency
system.l3cache.overall_avg_miss_latency::total 81254.464286                       # average overall miss latency
system.l3cache.blocked_cycles::no_mshrs             0                       # number of cycles access was blocked
system.l3cache.blocked_cycles::no_targets            0                       # number of cycles access was blocked
system.l3cache.blocked::no_mshrs                    0                       # number of cycles access was blocked
system.l3cache.blocked::no_targets                  0                       # number of cycles access was blocked
system.l3cache.avg_blocked_cycles::no_mshrs          nan                       # average number of cycles each access was blocked
system.l3cache.avg_blocked_cycles::no_targets          nan                       # average number of cycles each access was blocked
system.l3cache.ReadExReq_mshr_misses::.cpu.data          136                       # number of ReadExReq MSHR misses
system.l3cache.ReadExReq_mshr_misses::total          136                       # number of ReadExReq MSHR misses
system.l3cache.ReadSharedReq_mshr_misses::.cpu.inst          533                       # number of ReadSharedReq MSHR misses
system.l3cache.ReadSharedReq_mshr_misses::.cpu.data          115                       # number of ReadSharedReq MSHR misses
system.l3cache.ReadSharedReq_mshr_misses::total          648                       # number of ReadSharedReq MSHR misses
system.l3cache.demand_mshr_misses::.cpu.inst          533                       # number of demand (read+write) MSHR misses
system.l3cache.demand_mshr_misses::.cpu.data          251                       # number of demand (read+write) MSHR misses
system.l3cache.demand_mshr_misses::total          784                       # number of demand (read+write) MSHR misses
system.l3cache.overall_mshr_misses::.cpu.inst          533                       # number of overall MSHR misses
system.l3cache.overall_mshr_misses::.cpu.data          251                       # number of overall MSHR misses
system.l3cache.overall_mshr_misses::total          784                       # number of overall MSHR misses
system.l3cache.ReadExReq_mshr_miss_latency::.cpu.data     14309000                       # number of ReadExReq MSHR miss cycles
system.l3cache.ReadExReq_mshr_miss_latency::total     14309000                       # number of ReadExReq MSHR miss cycles
system.l3cache.ReadSharedReq_mshr_miss_latency::.cpu.inst     39541500                       # number of ReadSharedReq MSHR miss cycles
system.l3cache.ReadSharedReq_mshr_miss_latency::.cpu.data      8285000                       # number of ReadSharedReq MSHR miss cycles
system.l3cache.ReadSharedReq_mshr_miss_latency::total     47826500                       # number of ReadSharedReq MSHR miss cycles
system.l3cache.demand_mshr_miss_latency::.cpu.inst     39541500                       # number of demand (read+write) MSHR miss cycles
system.l3cache.demand_mshr_miss_latency::.cpu.data     22594000                       # number of demand (read+write) MSHR miss cycles
system.l3cache.demand_mshr_miss_latency::total     62135500                       # number of demand (read+write) MSHR miss cycles
system.l3cache.overall_mshr_miss_latency::.cpu.inst     39541500                       # number of overall MSHR miss cycles
system.l3cache.overall_mshr_miss_latency::.cpu.data     22594000                       # number of overall MSHR miss cycles
system.l3cache.overall_mshr_miss_latency::total     62135500                       # number of overall MSHR miss cycles
system.l3cache.ReadExReq_mshr_miss_rate::.cpu.data            1                       # mshr miss rate for ReadExReq accesses
system.l3cache.ReadExReq_mshr_miss_rate::total            1                       # mshr miss rate for ReadExReq accesses
system.l3cache.ReadSharedReq_mshr_miss_rate::.cpu.inst            1                       # mshr miss rate for ReadSharedReq accesses
system.l3cache.ReadSharedReq_mshr_miss_rate::.cpu.data            1                       # mshr miss rate for ReadSharedReq accesses
system.l3cache.ReadSharedReq_mshr_miss_rate::total            1                       # mshr miss rate for ReadSharedReq accesses
system.l3cache.demand_mshr_miss_rate::.cpu.inst            1                       # mshr miss rate for demand accesses
system.l3cache.demand_mshr_miss_rate::.cpu.data            1                       # mshr miss rate for demand accesses
system.l3cache.demand_mshr_miss_rate::total            1                       # mshr miss rate for demand accesses
system.l3cache.overall_mshr_miss_rate::.cpu.inst            1                       # mshr miss rate for overall accesses
system.l3cache.overall_mshr_miss_rate::.cpu.data            1                       # mshr miss rate for overall accesses
system.l3cache.overall_mshr_miss_rate::total            1                       # mshr miss rate for overall accesses
system.l3cache.ReadExReq_avg_mshr_miss_latency::.cpu.data 105213.235294                       # average ReadExReq mshr miss latency
system.l3cache.ReadExReq_avg_mshr_miss_latency::total 105213.235294                       # average ReadExReq mshr miss latency
system.l3cache.ReadSharedReq_avg_mshr_miss_latency::.cpu.inst 74186.679174                       # average ReadSharedReq mshr miss latency
system.l3cache.ReadSharedReq_avg_mshr_miss_latency::.cpu.data 72043.478261                       # average ReadSharedReq mshr miss latency
system.l3cache.ReadSharedReq_avg_mshr_miss_latency::total 73806.327160                       # average ReadSharedReq mshr miss latency
system.l3cache.demand_avg_mshr_miss_latency::.cpu.inst 74186.679174                       # average overall mshr miss latency
system.l3cache.demand_avg_mshr_miss_latency::.cpu.data 90015.936255                       # average overall mshr miss latency
system.l3cache.demand_avg_mshr_miss_latency::total 79254.464286                       # average overall mshr miss latency
system.l3cache.overall_avg_mshr_miss_latency::.cpu.inst 74186.679174                       # average overall mshr miss latency
system.l3cache.overall_avg_mshr_miss_latency::.cpu.data 90015.936255                       # average overall mshr miss latency
system.l3cache.overall_avg_mshr_miss_latency::total 79254.464286                       # average overall mshr miss latency
system.l3cache.replacements                         0                       # number of replacements
system.membus.snoop_filter.tot_requests           784                       # Total number of requests made to the snoop filter.
system.membus.snoop_filter.hit_single_requests            0                       # Number of requests hitting in the snoop filter with a single holder of the requested data.
system.membus.snoop_filter.hit_multi_requests            0                       # Number of requests hitting in the snoop filter with multiple (>1) holders of the requested data.
system.membus.snoop_filter.tot_snoops               0                       # Total number of snoops made to the snoop filter.
system.membus.snoop_filter.hit_single_snoops            0                       # Number of snoops hitting in the snoop filter with a single holder of the requested data.
system.membus.snoop_filter.hit_multi_snoops            0                       # Number of snoops hitting in the snoop filter with multiple (>1) holders of the requested data.
system.membus.pwrStateResidencyTicks::UNDEFINED  16267278500                       # Cumulative time (in ticks) in various power states
system.membus.trans_dist::ReadResp                648                       # Transaction distribution
system.membus.trans_dist::ReadExReq               136                       # Transaction distribution
system.membus.trans_dist::ReadExResp              136                       # Transaction distribution
system.membus.trans_dist::ReadSharedReq           648                       # Transaction distribution
system.membus.pkt_count_system.l3cache.mem_side::system.mem_ctrl.port         1568                       # Packet count per connected master and slave (bytes)
system.membus.pkt_count_system.l3cache.mem_side::total         1568                       # Packet count per connected master and slave (bytes)
system.membus.pkt_count::total                   1568                       # Packet count per connected master and slave (bytes)
system.membus.pkt_size_system.l3cache.mem_side::system.mem_ctrl.port        50176                       # Cumulative packet size per connected master and slave (bytes)
system.membus.pkt_size_system.l3cache.mem_side::total        50176                       # Cumulative packet size per connected master and slave (bytes)
system.membus.pkt_size::total                   50176                       # Cumulative packet size per connected master and slave (bytes)
system.membus.snoops                                0                       # Total snoops (count)
system.membus.snoopTraffic                          0                       # Total snoop traffic (bytes)
system.membus.snoop_fanout::samples               784                       # Request fanout histogram
system.membus.snoop_fanout::mean                    0                       # Request fanout histogram
system.membus.snoop_fanout::stdev                   0                       # Request fanout histogram
system.membus.snoop_fanout::underflows              0      0.00%      0.00% # Request fanout histogram
system.membus.snoop_fanout::0                     784    100.00%    100.00% # Request fanout histogram
system.membus.snoop_fanout::1                       0      0.00%    100.00% # Request fanout histogram
system.membus.snoop_fanout::overflows               0      0.00%    100.00% # Request fanout histogram
system.membus.snoop_fanout::min_value               0                       # Request fanout histogram
system.membus.snoop_fanout::max_value               0                       # Request fanout histogram
system.membus.snoop_fanout::total                 784                       # Request fanout histogram
system.membus.reqLayer0.occupancy              392000                       # Layer occupancy (ticks)
system.membus.reqLayer0.utilization               0.0                       # Layer utilization (%)
system.membus.respLayer0.occupancy            2127500                       # Layer occupancy (ticks)
system.membus.respLayer0.utilization              0.0                       # Layer utilization (%)

---------- End Simulation Statistics   ----------
