
---------- Begin Simulation Statistics ----------
sim_seconds                                  0.006198                       # Number of seconds simulated
sim_ticks                                  6197740500                       # Number of ticks simulated
final_tick                                 6197740500                       # Number of ticks from beginning of simulation (restored from checkpoints and never reset)
sim_freq                                 1000000000000                       # Frequency of simulated ticks
host_inst_rate                                 161844                       # Simulator instruction rate (inst/s)
host_op_rate                                   292343                       # Simulator op (including micro ops) rate (op/s)
host_tick_rate                               88706948                       # Simulator tick rate (ticks/s)
host_mem_usage                                 662500                       # Number of bytes of host memory used
host_seconds                                    69.87                       # Real time elapsed on the host
sim_insts                                    11307648                       # Number of instructions simulated
sim_ops                                      20425294                       # Number of ops (including micro ops) simulated
system.clk_domain.voltage_domain.voltage            1                       # Voltage in Volts
system.clk_domain.clock                           500                       # Clock period in ticks
system.mem_ctrl.pwrStateResidencyTicks::UNDEFINED   6197740500                       # Cumulative time (in ticks) in various power states
system.mem_ctrl.bytes_read::.cpu.inst           34688                       # Number of bytes read from this memory
system.mem_ctrl.bytes_read::.cpu.data           48512                       # Number of bytes read from this memory
system.mem_ctrl.bytes_read::total               83200                       # Number of bytes read from this memory
system.mem_ctrl.bytes_inst_read::.cpu.inst        34688                       # Number of instructions bytes read from this memory
system.mem_ctrl.bytes_inst_read::total          34688                       # Number of instructions bytes read from this memory
system.mem_ctrl.num_reads::.cpu.inst              542                       # Number of read requests responded to by this memory
system.mem_ctrl.num_reads::.cpu.data              758                       # Number of read requests responded to by this memory
system.mem_ctrl.num_reads::total                 1300                       # Number of read requests responded to by this memory
system.mem_ctrl.bw_read::.cpu.inst            5596878                       # Total read bandwidth from this memory (bytes/s)
system.mem_ctrl.bw_read::.cpu.data            7827369                       # Total read bandwidth from this memory (bytes/s)
system.mem_ctrl.bw_read::total               13424247                       # Total read bandwidth from this memory (bytes/s)
system.mem_ctrl.bw_inst_read::.cpu.inst       5596878                       # Instruction read bandwidth from this memory (bytes/s)
system.mem_ctrl.bw_inst_read::total           5596878                       # Instruction read bandwidth from this memory (bytes/s)
system.mem_ctrl.bw_total::.cpu.inst           5596878                       # Total bandwidth to/from this memory (bytes/s)
system.mem_ctrl.bw_total::.cpu.data           7827369                       # Total bandwidth to/from this memory (bytes/s)
system.mem_ctrl.bw_total::total              13424247                       # Total bandwidth to/from this memory (bytes/s)
system.mem_ctrl.avgPriority_.cpu.inst::samples       542.00                       # Average QoS priority value for accepted requests
system.mem_ctrl.avgPriority_.cpu.data::samples       758.00                       # Average QoS priority value for accepted requests
system.mem_ctrl.priorityMinLatency       0.000000018750                       # per QoS priority minimum request to response latency (s)
system.mem_ctrl.priorityMaxLatency       0.000001099750                       # per QoS priority maximum request to response latency (s)
system.mem_ctrl.numReadWriteTurnArounds             0                       # Number of turnarounds from READ to WRITE
system.mem_ctrl.numWriteReadTurnArounds             0                       # Number of turnarounds from WRITE to READ
system.mem_ctrl.numStayReadState                 2721                       # Number of times bus staying in READ state
system.mem_ctrl.numStayWriteState                   0                       # Number of times bus staying in WRITE state
system.mem_ctrl.readReqs                         1300                       # Number of read requests accepted
system.mem_ctrl.writeReqs                           0                       # Number of write requests accepted
system.mem_ctrl.readBursts                       1300                       # Number of DRAM read bursts, including those serviced by the write queue
system.mem_ctrl.writeBursts                         0                       # Number of DRAM write bursts, including those merged in the write queue
system.mem_ctrl.bytesReadDRAM                   83200                       # Total number of bytes read from DRAM
system.mem_ctrl.bytesReadWrQ                        0                       # Total number of bytes read from write queue
system.mem_ctrl.bytesWritten                        0                       # Total number of bytes written to DRAM
system.mem_ctrl.bytesReadSys                    83200                       # Total read bytes from the system interface side
system.mem_ctrl.bytesWrittenSys                     0                       # Total written bytes from the system interface side
system.mem_ctrl.servicedByWrQ                       0                       # Number of DRAM read bursts serviced by the write queue
system.mem_ctrl.mergedWrBursts                      0                       # Number of DRAM write bursts merged with an existing one
system.mem_ctrl.neitherReadNorWriteReqs             0                       # Number of requests that are neither read nor write
system.mem_ctrl.perBankRdBursts::0                207                       # Per bank write bursts
system.mem_ctrl.perBankRdBursts::1                 92                       # Per bank write bursts
system.mem_ctrl.perBankRdBursts::2                158                       # Per bank write bursts
system.mem_ctrl.perBankRdBursts::3                133                       # Per bank write bursts
system.mem_ctrl.perBankRdBursts::4                137                       # Per bank write bursts
system.mem_ctrl.perBankRdBursts::5                 43                       # Per bank write bursts
system.mem_ctrl.perBankRdBursts::6                 65                       # Per bank write bursts
system.mem_ctrl.perBankRdBursts::7                 55                       # Per bank write bursts
system.mem_ctrl.perBankRdBursts::8                 18                       # Per bank write bursts
system.mem_ctrl.perBankRdBursts::9                 14                       # Per bank write bursts
system.mem_ctrl.perBankRdBursts::10                36                       # Per bank write bursts
system.mem_ctrl.perBankRdBursts::11                50                       # Per bank write bursts
system.mem_ctrl.perBankRdBursts::12                35                       # Per bank write bursts
system.mem_ctrl.perBankRdBursts::13                96                       # Per bank write bursts
system.mem_ctrl.perBankRdBursts::14               101                       # Per bank write bursts
system.mem_ctrl.perBankRdBursts::15                60                       # Per bank write bursts
system.mem_ctrl.perBankWrBursts::0                  0                       # Per bank write bursts
system.mem_ctrl.perBankWrBursts::1                  0                       # Per bank write bursts
system.mem_ctrl.perBankWrBursts::2                  0                       # Per bank write bursts
system.mem_ctrl.perBankWrBursts::3                  0                       # Per bank write bursts
system.mem_ctrl.perBankWrBursts::4                  0                       # Per bank write bursts
system.mem_ctrl.perBankWrBursts::5                  0                       # Per bank write bursts
system.mem_ctrl.perBankWrBursts::6                  0                       # Per bank write bursts
system.mem_ctrl.perBankWrBursts::7                  0                       # Per bank write bursts
system.mem_ctrl.perBankWrBursts::8                  0                       # Per bank write bursts
system.mem_ctrl.perBankWrBursts::9                  0                       # Per bank write bursts
system.mem_ctrl.perBankWrBursts::10                 0                       # Per bank write bursts
system.mem_ctrl.perBankWrBursts::11                 0                       # Per bank write bursts
system.mem_ctrl.perBankWrBursts::12                 0                       # Per bank write bursts
system.mem_ctrl.perBankWrBursts::13                 0                       # Per bank write bursts
system.mem_ctrl.perBankWrBursts::14                 0                       # Per bank write bursts
system.mem_ctrl.perBankWrBursts::15                 0                       # Per bank write bursts
system.mem_ctrl.numRdRetry                          0                       # Number of times read queue was full causing retry
system.mem_ctrl.numWrRetry                          0                       # Number of times write queue was full causing retry
system.mem_ctrl.totGap                     6197655500                       # Total gap between requests
system.mem_ctrl.readPktSize::0                      0                       # Read request sizes (log2)
system.mem_ctrl.readPktSize::1                      0                       # Read request sizes (log2)
system.mem_ctrl.readPktSize::2                      0                       # Read request sizes (log2)
system.mem_ctrl.readPktSize::3                      0                       # Read request sizes (log2)
system.mem_ctrl.readPktSize::4                      0                       # Read request sizes (log2)
system.mem_ctrl.readPktSize::5                      0                       # Read request sizes (log2)
system.mem_ctrl.readPktSize::6                   1300                       # Read request sizes (log2)
system.mem_ctrl.writePktSize::0                     0                       # Write request sizes (log2)
system.mem_ctrl.writePktSize::1                     0                       # Write request sizes (log2)
system.mem_ctrl.writePktSize::2                     0                       # Write request sizes (log2)
system.mem_ctrl.writePktSize::3                     0                       # Write request sizes (log2)
system.mem_ctrl.writePktSize::4                     0                       # Write request sizes (log2)
system.mem_ctrl.writePktSize::5                     0                       # Write request sizes (log2)
system.mem_ctrl.writePktSize::6                     0                       # Write request sizes (log2)
system.mem_ctrl.rdQLenPdf::0                     1043                       # What read queue length does an incoming req see
system.mem_ctrl.rdQLenPdf::1                      204                       # What read queue length does an incoming req see
system.mem_ctrl.rdQLenPdf::2                       43                       # What read queue length does an incoming req see
system.mem_ctrl.rdQLenPdf::3                        8                       # What read queue length does an incoming req see
system.mem_ctrl.rdQLenPdf::4                        2                       # What read queue length does an incoming req see
system.mem_ctrl.rdQLenPdf::5                        0                       # What read queue length does an incoming req see
system.mem_ctrl.rdQLenPdf::6                        0                       # What read queue length does an incoming req see
system.mem_ctrl.rdQLenPdf::7                        0                       # What read queue length does an incoming req see
system.mem_ctrl.rdQLenPdf::8                        0                       # What read queue length does an incoming req see
system.mem_ctrl.rdQLenPdf::9                        0                       # What read queue length does an incoming req see
system.mem_ctrl.rdQLenPdf::10                       0                       # What read queue length does an incoming req see
system.mem_ctrl.rdQLenPdf::11                       0                       # What read queue length does an incoming req see
system.mem_ctrl.rdQLenPdf::12                       0                       # What read queue length does an incoming req see
system.mem_ctrl.rdQLenPdf::13                       0                       # What read queue length does an incoming req see
system.mem_ctrl.rdQLenPdf::14                       0                       # What read queue length does an incoming req see
system.mem_ctrl.rdQLenPdf::15                       0                       # What read queue length does an incoming req see
system.mem_ctrl.rdQLenPdf::16                       0                       # What read queue length does an incoming req see
system.mem_ctrl.rdQLenPdf::17                       0                       # What read queue length does an incoming req see
system.mem_ctrl.rdQLenPdf::18                       0                       # What read queue length does an incoming req see
system.mem_ctrl.rdQLenPdf::19                       0                       # What read queue length does an incoming req see
system.mem_ctrl.rdQLenPdf::20                       0                       # What read queue length does an incoming req see
system.mem_ctrl.rdQLenPdf::21                       0                       # What read queue length does an incoming req see
system.mem_ctrl.rdQLenPdf::22                       0                       # What read queue length does an incoming req see
system.mem_ctrl.rdQLenPdf::23                       0                       # What read queue length does an incoming req see
system.mem_ctrl.rdQLenPdf::24                       0                       # What read queue length does an incoming req see
system.mem_ctrl.rdQLenPdf::25                       0                       # What read queue length does an incoming req see
system.mem_ctrl.rdQLenPdf::26                       0                       # What read queue length does an incoming req see
system.mem_ctrl.rdQLenPdf::27                       0                       # What read queue length does an incoming req see
system.mem_ctrl.rdQLenPdf::28                       0                       # What read queue length does an incoming req see
system.mem_ctrl.rdQLenPdf::29                       0                       # What read queue length does an incoming req see
system.mem_ctrl.rdQLenPdf::30                       0                       # What read queue length does an incoming req see
system.mem_ctrl.rdQLenPdf::31                       0                       # What read queue length does an incoming req see
system.mem_ctrl.wrQLenPdf::0                        0                       # What write queue length does an incoming req see
system.mem_ctrl.wrQLenPdf::1                        0                       # What write queue length does an incoming req see
system.mem_ctrl.wrQLenPdf::2                        0                       # What write queue length does an incoming req see
system.mem_ctrl.wrQLenPdf::3                        0                       # What write queue length does an incoming req see
system.mem_ctrl.wrQLenPdf::4                        0                       # What write queue length does an incoming req see
system.mem_ctrl.wrQLenPdf::5                        0                       # What write queue length does an incoming req see
system.mem_ctrl.wrQLenPdf::6                        0                       # What write queue length does an incoming req see
system.mem_ctrl.wrQLenPdf::7                        0                       # What write queue length does an incoming req see
system.mem_ctrl.wrQLenPdf::8                        0                       # What write queue length does an incoming req see
system.mem_ctrl.wrQLenPdf::9                        0                       # What write queue length does an incoming req see
system.mem_ctrl.wrQLenPdf::10                       0                       # What write queue length does an incoming req see
system.mem_ctrl.wrQLenPdf::11                       0                       # What write queue length does an incoming req see
system.mem_ctrl.wrQLenPdf::12                       0                       # What write queue length does an incoming req see
system.mem_ctrl.wrQLenPdf::13                       0                       # What write queue length does an incoming req see
system.mem_ctrl.wrQLenPdf::14                       0                       # What write queue length does an incoming req see
system.mem_ctrl.wrQLenPdf::15                       0                       # What write queue length does an incoming req see
system.mem_ctrl.wrQLenPdf::16                       0                       # What write queue length does an incoming req see
system.mem_ctrl.wrQLenPdf::17                       0                       # What write queue length does an incoming req see
system.mem_ctrl.wrQLenPdf::18                       0                       # What write queue length does an incoming req see
system.mem_ctrl.wrQLenPdf::19                       0                       # What write queue length does an incoming req see
system.mem_ctrl.wrQLenPdf::20                       0                       # What write queue length does an incoming req see
system.mem_ctrl.wrQLenPdf::21                       0                       # What write queue length does an incoming req see
system.mem_ctrl.wrQLenPdf::22                       0                       # What write queue length does an incoming req see
system.mem_ctrl.wrQLenPdf::23                       0                       # What write queue length does an incoming req see
system.mem_ctrl.wrQLenPdf::24                       0                       # What write queue length does an incoming req see
system.mem_ctrl.wrQLenPdf::25                       0                       # What write queue length does an incoming req see
system.mem_ctrl.wrQLenPdf::26                       0                       # What write queue length does an incoming req see
system.mem_ctrl.wrQLenPdf::27                       0                       # What write queue length does an incoming req see
system.mem_ctrl.wrQLenPdf::28                       0                       # What write queue length does an incoming req see
system.mem_ctrl.wrQLenPdf::29                       0                       # What write queue length does an incoming req see
system.mem_ctrl.wrQLenPdf::30                       0                       # What write queue length does an incoming req see
system.mem_ctrl.wrQLenPdf::31                       0                       # What write queue length does an incoming req see
system.mem_ctrl.wrQLenPdf::32                       0                       # What write queue length does an incoming req see
system.mem_ctrl.wrQLenPdf::33                       0                       # What write queue length does an incoming req see
system.mem_ctrl.wrQLenPdf::34                       0                       # What write queue length does an incoming req see
system.mem_ctrl.wrQLenPdf::35                       0                       # What write queue length does an incoming req see
system.mem_ctrl.wrQLenPdf::36                       0                       # What write queue length does an incoming req see
system.mem_ctrl.wrQLenPdf::37                       0                       # What write queue length does an incoming req see
system.mem_ctrl.wrQLenPdf::38                       0                       # What write queue length does an incoming req see
system.mem_ctrl.wrQLenPdf::39                       0                       # What write queue length does an incoming req see
system.mem_ctrl.wrQLenPdf::40                       0                       # What write queue length does an incoming req see
system.mem_ctrl.wrQLenPdf::41                       0                       # What write queue length does an incoming req see
system.mem_ctrl.wrQLenPdf::42                       0                       # What write queue length does an incoming req see
system.mem_ctrl.wrQLenPdf::43                       0                       # What write queue length does an incoming req see
system.mem_ctrl.wrQLenPdf::44                       0                       # What write queue length does an incoming req see
system.mem_ctrl.wrQLenPdf::45                       0                       # What write queue length does an incoming req see
system.mem_ctrl.wrQLenPdf::46                       0                       # What write queue length does an incoming req see
system.mem_ctrl.wrQLenPdf::47                       0                       # What write queue length does an incoming req see
system.mem_ctrl.wrQLenPdf::48                       0                       # What write queue length does an incoming req see
system.mem_ctrl.wrQLenPdf::49                       0                       # What write queue length does an incoming req see
system.mem_ctrl.wrQLenPdf::50                       0                       # What write queue length does an incoming req see
system.mem_ctrl.wrQLenPdf::51                       0                       # What write queue length does an incoming req see
system.mem_ctrl.wrQLenPdf::52                       0                       # What write queue length does an incoming req see
system.mem_ctrl.wrQLenPdf::53                       0                       # What write queue length does an incoming req see
system.mem_ctrl.wrQLenPdf::54                       0                       # What write queue length does an incoming req see
system.mem_ctrl.wrQLenPdf::55                       0                       # What write queue length does an incoming req see
system.mem_ctrl.wrQLenPdf::56                       0                       # What write queue length does an incoming req see
system.mem_ctrl.wrQLenPdf::57                       0                       # What write queue length does an incoming req see
system.mem_ctrl.wrQLenPdf::58                       0                       # What write queue length does an incoming req see
system.mem_ctrl.wrQLenPdf::59                       0                       # What write queue length does an incoming req see
system.mem_ctrl.wrQLenPdf::60                       0                       # What write queue length does an incoming req see
system.mem_ctrl.wrQLenPdf::61                       0                       # What write queue length does an incoming req see
system.mem_ctrl.wrQLenPdf::62                       0                       # What write queue length does an incoming req see
system.mem_ctrl.wrQLenPdf::63                       0                       # What write queue length does an incoming req see
system.mem_ctrl.bytesPerActivate::samples          316                       # Bytes accessed per row activation
system.mem_ctrl.bytesPerActivate::mean            256                       # Bytes accessed per row activation
system.mem_ctrl.bytesPerActivate::gmean    146.895647                       # Bytes accessed per row activation
system.mem_ctrl.bytesPerActivate::stdev    307.166136                       # Bytes accessed per row activation
system.mem_ctrl.bytesPerActivate::0-127           154     48.73%     48.73% # Bytes accessed per row activation
system.mem_ctrl.bytesPerActivate::128-255           63     19.94%     68.67% # Bytes accessed per row activation
system.mem_ctrl.bytesPerActivate::256-383           31      9.81%     78.48% # Bytes accessed per row activation
system.mem_ctrl.bytesPerActivate::384-511           15      4.75%     83.23% # Bytes accessed per row activation
system.mem_ctrl.bytesPerActivate::512-639           10      3.16%     86.39% # Bytes accessed per row activation
system.mem_ctrl.bytesPerActivate::640-767            3      0.95%     87.34% # Bytes accessed per row activation
system.mem_ctrl.bytesPerActivate::768-895            6      1.90%     89.24% # Bytes accessed per row activation
system.mem_ctrl.bytesPerActivate::896-1023            3      0.95%     90.19% # Bytes accessed per row activation
system.mem_ctrl.bytesPerActivate::1024-1151           31      9.81%    100.00% # Bytes accessed per row activation
system.mem_ctrl.bytesPerActivate::total           316                       # Bytes accessed per row activation
system.mem_ctrl.masterReadBytes::.cpu.inst        34688                       # Per-master bytes read from memory
system.mem_ctrl.masterReadBytes::.cpu.data        48512                       # Per-master bytes read from memory
system.mem_ctrl.masterReadRate::.cpu.inst 5596878.410769214854                       # Per-master bytes read from memory rate (Bytes/sec)
system.mem_ctrl.masterReadRate::.cpu.data 7827368.699931854382                       # Per-master bytes read from memory rate (Bytes/sec)
system.mem_ctrl.masterReadAccesses::.cpu.inst          542                       # Per-master read serviced memory accesses
system.mem_ctrl.masterReadAccesses::.cpu.data          758                       # Per-master read serviced memory accesses
system.mem_ctrl.masterReadTotalLat::.cpu.inst     20463750                       # Per-master read total memory access latency
system.mem_ctrl.masterReadTotalLat::.cpu.data     26400000                       # Per-master read total memory access latency
system.mem_ctrl.masterReadAvgLat::.cpu.inst     37756.00                       # Per-master read average memory access latency
system.mem_ctrl.masterReadAvgLat::.cpu.data     34828.50                       # Per-master read average memory access latency
system.mem_ctrl.totQLat                      22488750                       # Total ticks spent queuing
system.mem_ctrl.totMemAccLat                 46863750                       # Total ticks spent from burst creation until serviced by the DRAM
system.mem_ctrl.totBusLat                     6500000                       # Total ticks spent in databus transfers
system.mem_ctrl.avgQLat                      17299.04                       # Average queueing delay per DRAM burst
system.mem_ctrl.avgBusLat                     5000.00                       # Average bus latency per DRAM burst
system.mem_ctrl.avgMemAccLat                 36049.04                       # Average memory access latency per DRAM burst
system.mem_ctrl.avgRdBW                         13.42                       # Average DRAM read bandwidth in MiByte/s
system.mem_ctrl.avgWrBW                          0.00                       # Average achieved write bandwidth in MiByte/s
system.mem_ctrl.avgRdBWSys                      13.42                       # Average system read bandwidth in MiByte/s
system.mem_ctrl.avgWrBWSys                       0.00                       # Average system write bandwidth in MiByte/s
system.mem_ctrl.peakBW                       12800.00                       # Theoretical peak bandwidth in MiByte/s
system.mem_ctrl.busUtil                          0.10                       # Data bus utilization in percentage
system.mem_ctrl.busUtilRead                      0.10                       # Data bus utilization in percentage for reads
system.mem_ctrl.busUtilWrite                     0.00                       # Data bus utilization in percentage for writes
system.mem_ctrl.avgRdQLen                        1.00                       # Average read queue length when enqueuing
system.mem_ctrl.avgWrQLen                        0.00                       # Average write queue length when enqueuing
system.mem_ctrl.readRowHits                       974                       # Number of row buffer hits during reads
system.mem_ctrl.writeRowHits                        0                       # Number of row buffer hits during writes
system.mem_ctrl.readRowHitRate                  74.92                       # Row buffer hit rate for reads
system.mem_ctrl.writeRowHitRate                   nan                       # Row buffer hit rate for writes
system.mem_ctrl.avgGap                     4767427.31                       # Average gap between requests
system.mem_ctrl.pageHitRate                     74.92                       # Row buffer hit rate, read and write combined
system.mem_ctrl_0.actEnergy                   1606500                       # Energy for activate commands per rank (pJ)
system.mem_ctrl_0.preEnergy                    838695                       # Energy for precharge commands per rank (pJ)
system.mem_ctrl_0.readEnergy                  6354600                       # Energy for read commands per rank (pJ)
system.mem_ctrl_0.writeEnergy                       0                       # Energy for write commands per rank (pJ)
system.mem_ctrl_0.refreshEnergy          76215360.000000                       # Energy for refresh commands per rank (pJ)
system.mem_ctrl_0.actBackEnergy              25406610                       # Energy for active background per rank (pJ)
system.mem_ctrl_0.preBackEnergy               1888800                       # Energy for precharge background per rank (pJ)
system.mem_ctrl_0.actPowerDownEnergy        243824910                       # Energy for active power-down per rank (pJ)
system.mem_ctrl_0.prePowerDownEnergy        144246720                       # Energy for precharge power-down per rank (pJ)
system.mem_ctrl_0.selfRefreshEnergy        1255526880                       # Energy for self refresh per rank (pJ)
system.mem_ctrl_0.totalEnergy              1755909075                       # Total energy per rank (pJ)
system.mem_ctrl_0.averagePower             283.314391                       # Core power per rank (mW)
system.mem_ctrl_0.totalIdleTime            6137104750                       # Total Idle time Per DRAM Rank
system.mem_ctrl_0.memoryStateTime::IDLE       1350500                       # Time in different power states
system.mem_ctrl_0.memoryStateTime::REF       32240000                       # Time in different power states
system.mem_ctrl_0.memoryStateTime::SREF    5226759500                       # Time in different power states
system.mem_ctrl_0.memoryStateTime::PRE_PDN    375621750                       # Time in different power states
system.mem_ctrl_0.memoryStateTime::ACT       27003500                       # Time in different power states
system.mem_ctrl_0.memoryStateTime::ACT_PDN    534765250                       # Time in different power states
system.mem_ctrl_1.actEnergy                    721140                       # Energy for activate commands per rank (pJ)
system.mem_ctrl_1.preEnergy                    360525                       # Energy for precharge commands per rank (pJ)
system.mem_ctrl_1.readEnergy                  2927400                       # Energy for read commands per rank (pJ)
system.mem_ctrl_1.writeEnergy                       0                       # Energy for write commands per rank (pJ)
system.mem_ctrl_1.refreshEnergy          11063520.000000                       # Energy for refresh commands per rank (pJ)
system.mem_ctrl_1.actBackEnergy               6845700                       # Energy for active background per rank (pJ)
system.mem_ctrl_1.preBackEnergy                870240                       # Energy for precharge background per rank (pJ)
system.mem_ctrl_1.actPowerDownEnergy         36719400                       # Energy for active power-down per rank (pJ)
system.mem_ctrl_1.prePowerDownEnergy         18549120                       # Energy for precharge power-down per rank (pJ)
system.mem_ctrl_1.selfRefreshEnergy        1455705240                       # Energy for self refresh per rank (pJ)
system.mem_ctrl_1.totalEnergy              1533762285                       # Total energy per rank (pJ)
system.mem_ctrl_1.averagePower             247.471201                       # Core power per rank (mW)
system.mem_ctrl_1.totalIdleTime            6180224750                       # Total Idle time Per DRAM Rank
system.mem_ctrl_1.memoryStateTime::IDLE       1826000                       # Time in different power states
system.mem_ctrl_1.memoryStateTime::REF        4680000                       # Time in different power states
system.mem_ctrl_1.memoryStateTime::SREF    6051631500                       # Time in different power states
system.mem_ctrl_1.memoryStateTime::PRE_PDN     48303250                       # Time in different power states
system.mem_ctrl_1.memoryStateTime::ACT       10778500                       # Time in different power states
system.mem_ctrl_1.memoryStateTime::ACT_PDN     80521250                       # Time in different power states
system.pwrStateResidencyTicks::UNDEFINED   6197740500                       # Cumulative time (in ticks) in various power states
system.cpu.branchPred.lookups                 2125634                       # Number of BP lookups
system.cpu.branchPred.condPredicted           2125634                       # Number of conditional branches predicted
system.cpu.branchPred.condIncorrect             58591                       # Number of conditional branches incorrect
system.cpu.branchPred.BTBLookups              1737122                       # Number of BTB lookups
system.cpu.branchPred.BTBHits                       0                       # Number of BTB hits
system.cpu.branchPred.BTBCorrect                    0                       # Number of correct BTB predictions (this stat may not work properly.
system.cpu.branchPred.BTBHitPct              0.000000                       # BTB Hit Percentage
system.cpu.branchPred.usedRAS                  140849                       # Number of times the RAS was used to get a target.
system.cpu.branchPred.RASInCorrect               6167                       # Number of incorrect RAS predictions.
system.cpu.branchPred.indirectLookups         1737122                       # Number of indirect predictor lookups.
system.cpu.branchPred.indirectHits            1044068                       # Number of indirect target hits.
system.cpu.branchPred.indirectMisses           693054                       # Number of indirect misses.
system.cpu.branchPredindirectMispredicted         7488                       # Number of mispredicted indirect branches.
system.cpu.dtb.walker.pwrStateResidencyTicks::UNDEFINED   6197740500                       # Cumulative time (in ticks) in various power states
system.cpu.dtb.rdAccesses                     3891462                       # TLB accesses on read requests
system.cpu.dtb.wrAccesses                     1614333                       # TLB accesses on write requests
system.cpu.dtb.rdMisses                          1428                       # TLB misses on read requests
system.cpu.dtb.wrMisses                            38                       # TLB misses on write requests
system.cpu.apic_clk_domain.clock                 8000                       # Clock period in ticks
system.cpu.interrupts.pwrStateResidencyTicks::UNDEFINED   6197740500                       # Cumulative time (in ticks) in various power states
system.cpu.itb.walker.pwrStateResidencyTicks::UNDEFINED   6197740500                       # Cumulative time (in ticks) in various power states
system.cpu.itb.rdAccesses                           0                       # TLB accesses on read requests
system.cpu.itb.wrAccesses                     2533457                       # TLB accesses on write requests
system.cpu.itb.rdMisses                             0                       # TLB misses on read requests
system.cpu.itb.wrMisses                           169                       # TLB misses on write requests
system.cpu.workload.numSyscalls                    18                       # Number of system calls
system.cpu.pwrStateResidencyTicks::ON      6197740500                       # Cumulative time (in ticks) in various power states
system.cpu.numCycles                         12395482                       # number of cpu cycles simulated
system.cpu.numWorkItemsStarted                      0                       # number of work items this cpu started
system.cpu.numWorkItemsCompleted                    0                       # number of work items this cpu completed
system.cpu.fetch.icacheStallCycles              64310                       # Number of cycles fetch is stalled on an Icache miss
system.cpu.fetch.Insts                       12373883                       # Number of instructions fetch has processed
system.cpu.fetch.Branches                     2125634                       # Number of branches that fetch encountered
system.cpu.fetch.predictedBranches            1184917                       # Number of branches that fetch has predicted taken
system.cpu.fetch.Cycles                      12234409                       # Number of cycles fetch has run and was not squashing or blocked
system.cpu.fetch.SquashCycles                  117526                       # Number of cycles fetch has spent squashing
system.cpu.fetch.MiscStallCycles                   94                       # Number of cycles fetch has spent waiting on interrupts, or bad addresses, or out of MSHRs
system.cpu.fetch.PendingTrapStallCycles           539                       # Number of stall cycles due to pending traps
system.cpu.fetch.PendingQuiesceStallCycles            6                       # Number of stall cycles due to pending quiesce instructions
system.cpu.fetch.CacheLines                   2533339                       # Number of cache lines fetched
system.cpu.fetch.IcacheSquashes                   215                       # Number of outstanding Icache misses that were squashed
system.cpu.fetch.rateDist::samples           12358121                       # Number of instructions fetched each cycle (Total)
system.cpu.fetch.rateDist::mean              1.769241                       # Number of instructions fetched each cycle (Total)
system.cpu.fetch.rateDist::stdev             0.526057                       # Number of instructions fetched each cycle (Total)
system.cpu.fetch.rateDist::underflows               0      0.00%      0.00% # Number of instructions fetched each cycle (Total)
system.cpu.fetch.rateDist::0                   613129      4.96%      4.96% # Number of instructions fetched each cycle (Total)
system.cpu.fetch.rateDist::1                  1625490     13.15%     18.11% # Number of instructions fetched each cycle (Total)
system.cpu.fetch.rateDist::2                 10119502     81.89%    100.00% # Number of instructions fetched each cycle (Total)
system.cpu.fetch.rateDist::overflows                0      0.00%    100.00% # Number of instructions fetched each cycle (Total)
system.cpu.fetch.rateDist::min_value                0                       # Number of instructions fetched each cycle (Total)
system.cpu.fetch.rateDist::max_value                2                       # Number of instructions fetched each cycle (Total)
system.cpu.fetch.rateDist::total             12358121                       # Number of instructions fetched each cycle (Total)
system.cpu.fetch.branchRate                  0.171485                       # Number of branch fetches per cycle
system.cpu.fetch.rate                        0.998258                       # Number of inst fetches per cycle
system.cpu.decode.IdleCycles                   504524                       # Number of cycles decode is idle
system.cpu.decode.BlockedCycles                186535                       # Number of cycles decode is blocked
system.cpu.decode.RunCycles                  11489903                       # Number of cycles decode is running
system.cpu.decode.UnblockCycles                118396                       # Number of cycles decode is unblocking
system.cpu.decode.SquashCycles                  58763                       # Number of cycles decode is squashing
system.cpu.decode.DecodedInsts               21749959                       # Number of instructions handled by decode
system.cpu.rename.SquashCycles                  58763                       # Number of cycles rename is squashing
system.cpu.rename.IdleCycles                   575853                       # Number of cycles rename is idle
system.cpu.rename.BlockCycles                   44924                       # Number of cycles rename is blocking
system.cpu.rename.serializeStallCycles           3251                       # count of cycles rename stalled for serializing inst
system.cpu.rename.RunCycles                  11536841                       # Number of cycles rename is running
system.cpu.rename.UnblockCycles                138489                       # Number of cycles rename is unblocking
system.cpu.rename.RenamedInsts               21635833                       # Number of instructions processed by rename
system.cpu.rename.ROBFullEvents                     8                       # Number of times rename has blocked due to ROB full
system.cpu.rename.IQFullEvents                     53                       # Number of times rename has blocked due to IQ full
system.cpu.rename.LQFullEvents                   1046                       # Number of times rename has blocked due to LQ full
system.cpu.rename.SQFullEvents                 124480                       # Number of times rename has blocked due to SQ full
system.cpu.rename.FullRegisterEvents               14                       # Number of times there has been no free registers
system.cpu.rename.RenamedOperands            24846867                       # Number of destination operands rename has renamed
system.cpu.rename.RenameLookups              55484210                       # Number of register rename lookups that rename has made
system.cpu.rename.int_rename_lookups         33708316                       # Number of integer rename lookups
system.cpu.rename.fp_rename_lookups           1014920                       # Number of floating rename lookups
system.cpu.rename.CommittedMaps              23313998                       # Number of HB maps that are committed
system.cpu.rename.UndoneMaps                  1532869                       # Number of HB maps that are undone due to squashing
system.cpu.rename.serializingInsts                 30                       # count of serializing insts renamed
system.cpu.rename.tempSerializingInsts             28                       # count of temporary serializing insts renamed
system.cpu.rename.skidInsts                     52328                       # count of insts added to the skid buffer
system.cpu.memDep0.insertedLoads              4037864                       # Number of loads inserted to the mem dependence unit.
system.cpu.memDep0.insertedStores             1702688                       # Number of stores inserted to the mem dependence unit.
system.cpu.memDep0.conflictingLoads            533143                       # Number of conflicting loads.
system.cpu.memDep0.conflictingStores             1619                       # Number of conflicting stores.
system.cpu.iq.iqInstsAdded                   21526541                       # Number of instructions added to the IQ (excludes non-spec)
system.cpu.iq.iqNonSpecInstsAdded                 134                       # Number of non-speculative instructions added to the IQ
system.cpu.iq.iqInstsIssued                  21022152                       # Number of instructions issued
system.cpu.iq.iqSquashedInstsIssued             67819                       # Number of squashed instructions issued
system.cpu.iq.iqSquashedInstsExamined         1101380                       # Number of squashed instructions iterated over during squash; mainly for profiling
system.cpu.iq.iqSquashedOperandsExamined      1830592                       # Number of squashed operands that are examined and possibly removed from graph
system.cpu.iq.iqSquashedNonSpecRemoved            116                       # Number of squashed non-spec instructions that were removed
system.cpu.iq.issued_per_cycle::samples      12358121                       # Number of insts issued each cycle
system.cpu.iq.issued_per_cycle::mean         1.701080                       # Number of insts issued each cycle
system.cpu.iq.issued_per_cycle::stdev        0.572218                       # Number of insts issued each cycle
system.cpu.iq.issued_per_cycle::underflows            0      0.00%      0.00% # Number of insts issued each cycle
system.cpu.iq.issued_per_cycle::0              728303      5.89%      5.89% # Number of insts issued each cycle
system.cpu.iq.issued_per_cycle::1             2237484     18.11%     24.00% # Number of insts issued each cycle
system.cpu.iq.issued_per_cycle::2             9392334     76.00%    100.00% # Number of insts issued each cycle
system.cpu.iq.issued_per_cycle::overflows            0      0.00%    100.00% # Number of insts issued each cycle
system.cpu.iq.issued_per_cycle::min_value            0                       # Number of insts issued each cycle
system.cpu.iq.issued_per_cycle::max_value            2                       # Number of insts issued each cycle
system.cpu.iq.issued_per_cycle::total        12358121                       # Number of insts issued each cycle
system.cpu.iq.fu_full::No_OpClass                   0      0.00%      0.00% # attempts to use FU when none available
system.cpu.iq.fu_full::IntAlu                       0      0.00%      0.00% # attempts to use FU when none available
system.cpu.iq.fu_full::IntMult                      0      0.00%      0.00% # attempts to use FU when none available
system.cpu.iq.fu_full::IntDiv                       0      0.00%      0.00% # attempts to use FU when none available
system.cpu.iq.fu_full::FloatAdd                     0      0.00%      0.00% # attempts to use FU when none available
system.cpu.iq.fu_full::FloatCmp                     0      0.00%      0.00% # attempts to use FU when none available
system.cpu.iq.fu_full::FloatCvt                     0      0.00%      0.00% # attempts to use FU when none available
system.cpu.iq.fu_full::FloatMult                    0      0.00%      0.00% # attempts to use FU when none available
system.cpu.iq.fu_full::FloatMultAcc                 0      0.00%      0.00% # attempts to use FU when none available
system.cpu.iq.fu_full::FloatDiv                     0      0.00%      0.00% # attempts to use FU when none available
system.cpu.iq.fu_full::FloatMisc                    0      0.00%      0.00% # attempts to use FU when none available
system.cpu.iq.fu_full::FloatSqrt                    0      0.00%      0.00% # attempts to use FU when none available
system.cpu.iq.fu_full::SimdAdd                    256      0.02%      0.02% # attempts to use FU when none available
system.cpu.iq.fu_full::SimdAddAcc                   0      0.00%      0.02% # attempts to use FU when none available
system.cpu.iq.fu_full::SimdAlu                  17888      1.38%      1.39% # attempts to use FU when none available
system.cpu.iq.fu_full::SimdCmp                      0      0.00%      1.39% # attempts to use FU when none available
system.cpu.iq.fu_full::SimdCvt                  48011      3.69%      5.09% # attempts to use FU when none available
system.cpu.iq.fu_full::SimdMisc                 24400      1.88%      6.96% # attempts to use FU when none available
system.cpu.iq.fu_full::SimdMult                     0      0.00%      6.96% # attempts to use FU when none available
system.cpu.iq.fu_full::SimdMultAcc                  0      0.00%      6.96% # attempts to use FU when none available
system.cpu.iq.fu_full::SimdShift                    0      0.00%      6.96% # attempts to use FU when none available
system.cpu.iq.fu_full::SimdShiftAcc                 0      0.00%      6.96% # attempts to use FU when none available
system.cpu.iq.fu_full::SimdSqrt                     0      0.00%      6.96% # attempts to use FU when none available
system.cpu.iq.fu_full::SimdFloatAdd                 0      0.00%      6.96% # attempts to use FU when none available
system.cpu.iq.fu_full::SimdFloatAlu                 0      0.00%      6.96% # attempts to use FU when none available
system.cpu.iq.fu_full::SimdFloatCmp                 0      0.00%      6.96% # attempts to use FU when none available
system.cpu.iq.fu_full::SimdFloatCvt                 0      0.00%      6.96% # attempts to use FU when none available
system.cpu.iq.fu_full::SimdFloatDiv                 0      0.00%      6.96% # attempts to use FU when none available
system.cpu.iq.fu_full::SimdFloatMisc                0      0.00%      6.96% # attempts to use FU when none available
system.cpu.iq.fu_full::SimdFloatMult                0      0.00%      6.96% # attempts to use FU when none available
system.cpu.iq.fu_full::SimdFloatMultAcc             0      0.00%      6.96% # attempts to use FU when none available
system.cpu.iq.fu_full::SimdFloatSqrt                0      0.00%      6.96% # attempts to use FU when none available
system.cpu.iq.fu_full::SimdAes                      0      0.00%      6.96% # attempts to use FU when none available
system.cpu.iq.fu_full::SimdAesMix                   0      0.00%      6.96% # attempts to use FU when none available
system.cpu.iq.fu_full::SimdSha1Hash                 0      0.00%      6.96% # attempts to use FU when none available
system.cpu.iq.fu_full::SimdSha1Hash2                0      0.00%      6.96% # attempts to use FU when none available
system.cpu.iq.fu_full::SimdSha256Hash               0      0.00%      6.96% # attempts to use FU when none available
system.cpu.iq.fu_full::SimdSha256Hash2              0      0.00%      6.96% # attempts to use FU when none available
system.cpu.iq.fu_full::SimdShaSigma2                0      0.00%      6.96% # attempts to use FU when none available
system.cpu.iq.fu_full::SimdShaSigma3                0      0.00%      6.96% # attempts to use FU when none available
system.cpu.iq.fu_full::MemRead                1030503     79.22%     86.19% # attempts to use FU when none available
system.cpu.iq.fu_full::MemWrite                179672     13.81%    100.00% # attempts to use FU when none available
system.cpu.iq.fu_full::FloatMemRead                 0      0.00%    100.00% # attempts to use FU when none available
system.cpu.iq.fu_full::FloatMemWrite                0      0.00%    100.00% # attempts to use FU when none available
system.cpu.iq.fu_full::IprAccess                    0      0.00%    100.00% # attempts to use FU when none available
system.cpu.iq.fu_full::InstPrefetch                 0      0.00%    100.00% # attempts to use FU when none available
system.cpu.iq.FU_type_0::No_OpClass             61979      0.29%      0.29% # Type of FU issued
system.cpu.iq.FU_type_0::IntAlu              14938133     71.06%     71.35% # Type of FU issued
system.cpu.iq.FU_type_0::IntMult                46900      0.22%     71.58% # Type of FU issued
system.cpu.iq.FU_type_0::IntDiv                    72      0.00%     71.58% # Type of FU issued
system.cpu.iq.FU_type_0::FloatAdd               24011      0.11%     71.69% # Type of FU issued
system.cpu.iq.FU_type_0::FloatCmp                   0      0.00%     71.69% # Type of FU issued
system.cpu.iq.FU_type_0::FloatCvt                   0      0.00%     71.69% # Type of FU issued
system.cpu.iq.FU_type_0::FloatMult                  0      0.00%     71.69% # Type of FU issued
system.cpu.iq.FU_type_0::FloatMultAcc               0      0.00%     71.69% # Type of FU issued
system.cpu.iq.FU_type_0::FloatDiv                   0      0.00%     71.69% # Type of FU issued
system.cpu.iq.FU_type_0::FloatMisc                  0      0.00%     71.69% # Type of FU issued
system.cpu.iq.FU_type_0::FloatSqrt                  0      0.00%     71.69% # Type of FU issued
system.cpu.iq.FU_type_0::SimdAdd                  374      0.00%     71.69% # Type of FU issued
system.cpu.iq.FU_type_0::SimdAddAcc                 0      0.00%     71.69% # Type of FU issued
system.cpu.iq.FU_type_0::SimdAlu                96084      0.46%     72.15% # Type of FU issued
system.cpu.iq.FU_type_0::SimdCmp                    0      0.00%     72.15% # Type of FU issued
system.cpu.iq.FU_type_0::SimdCvt                96112      0.46%     72.61% # Type of FU issued
system.cpu.iq.FU_type_0::SimdMisc              216227      1.03%     73.64% # Type of FU issued
system.cpu.iq.FU_type_0::SimdMult                   0      0.00%     73.64% # Type of FU issued
system.cpu.iq.FU_type_0::SimdMultAcc                0      0.00%     73.64% # Type of FU issued
system.cpu.iq.FU_type_0::SimdShift                186      0.00%     73.64% # Type of FU issued
system.cpu.iq.FU_type_0::SimdShiftAcc               0      0.00%     73.64% # Type of FU issued
system.cpu.iq.FU_type_0::SimdSqrt                   0      0.00%     73.64% # Type of FU issued
system.cpu.iq.FU_type_0::SimdFloatAdd               0      0.00%     73.64% # Type of FU issued
system.cpu.iq.FU_type_0::SimdFloatAlu               0      0.00%     73.64% # Type of FU issued
system.cpu.iq.FU_type_0::SimdFloatCmp               0      0.00%     73.64% # Type of FU issued
system.cpu.iq.FU_type_0::SimdFloatCvt               0      0.00%     73.64% # Type of FU issued
system.cpu.iq.FU_type_0::SimdFloatDiv               0      0.00%     73.64% # Type of FU issued
system.cpu.iq.FU_type_0::SimdFloatMisc              0      0.00%     73.64% # Type of FU issued
system.cpu.iq.FU_type_0::SimdFloatMult              0      0.00%     73.64% # Type of FU issued
system.cpu.iq.FU_type_0::SimdFloatMultAcc            0      0.00%     73.64% # Type of FU issued
system.cpu.iq.FU_type_0::SimdFloatSqrt              0      0.00%     73.64% # Type of FU issued
system.cpu.iq.FU_type_0::SimdAes                    0      0.00%     73.64% # Type of FU issued
system.cpu.iq.FU_type_0::SimdAesMix                 0      0.00%     73.64% # Type of FU issued
system.cpu.iq.FU_type_0::SimdSha1Hash               0      0.00%     73.64% # Type of FU issued
system.cpu.iq.FU_type_0::SimdSha1Hash2              0      0.00%     73.64% # Type of FU issued
system.cpu.iq.FU_type_0::SimdSha256Hash             0      0.00%     73.64% # Type of FU issued
system.cpu.iq.FU_type_0::SimdSha256Hash2            0      0.00%     73.64% # Type of FU issued
system.cpu.iq.FU_type_0::SimdShaSigma2              0      0.00%     73.64% # Type of FU issued
system.cpu.iq.FU_type_0::SimdShaSigma3              0      0.00%     73.64% # Type of FU issued
system.cpu.iq.FU_type_0::MemRead              3849582     18.31%     91.95% # Type of FU issued
system.cpu.iq.FU_type_0::MemWrite             1592951      7.58%     99.53% # Type of FU issued
system.cpu.iq.FU_type_0::FloatMemRead           72072      0.34%     99.87% # Type of FU issued
system.cpu.iq.FU_type_0::FloatMemWrite          27469      0.13%    100.00% # Type of FU issued
system.cpu.iq.FU_type_0::IprAccess                  0      0.00%    100.00% # Type of FU issued
system.cpu.iq.FU_type_0::InstPrefetch               0      0.00%    100.00% # Type of FU issued
system.cpu.iq.FU_type_0::total               21022152                       # Type of FU issued
system.cpu.iq.rate                           1.695953                       # Inst issue rate
system.cpu.iq.fu_busy_cnt                     1300730                       # FU busy when requested
system.cpu.iq.fu_busy_rate                   0.061874                       # FU busy rate (busy events/executed inst)
system.cpu.iq.int_inst_queue_reads           54470304                       # Number of integer instruction queue reads
system.cpu.iq.int_inst_queue_writes          22022988                       # Number of integer instruction queue writes
system.cpu.iq.int_inst_queue_wakeup_accesses     20212954                       # Number of integer instruction queue wakeup accesses
system.cpu.iq.fp_inst_queue_reads             1300670                       # Number of floating instruction queue reads
system.cpu.iq.fp_inst_queue_writes             605144                       # Number of floating instruction queue writes
system.cpu.iq.fp_inst_queue_wakeup_accesses       605020                       # Number of floating instruction queue wakeup accesses
system.cpu.iq.vec_inst_queue_reads                  0                       # Number of vector instruction queue reads
system.cpu.iq.vec_inst_queue_writes                 0                       # Number of vector instruction queue writes
system.cpu.iq.vec_inst_queue_wakeup_accesses            0                       # Number of vector instruction queue wakeup accesses
system.cpu.iq.int_alu_accesses               21565298                       # Number of integer alu accesses
system.cpu.iq.fp_alu_accesses                  695605                       # Number of floating point alu accesses
system.cpu.iq.vec_alu_accesses                      0                       # Number of vector alu accesses
system.cpu.iew.lsq.thread0.forwLoads           522512                       # Number of loads that had data forwarded from stores
system.cpu.iew.lsq.thread0.invAddrLoads             0                       # Number of loads ignored due to an invalid address
system.cpu.iew.lsq.thread0.squashedLoads       397786                       # Number of loads squashed
system.cpu.iew.lsq.thread0.ignoredResponses           68                       # Number of memory responses ignored because the instruction is squashed
system.cpu.iew.lsq.thread0.memOrderViolation           77                       # Number of memory ordering violations
system.cpu.iew.lsq.thread0.squashedStores        97808                       # Number of stores squashed
system.cpu.iew.lsq.thread0.invAddrSwpfs             0                       # Number of software prefetches ignored due to an invalid address
system.cpu.iew.lsq.thread0.blockedLoads             0                       # Number of blocked loads due to partial load-store forwarding
system.cpu.iew.lsq.thread0.rescheduledLoads            0                       # Number of loads that were rescheduled
system.cpu.iew.lsq.thread0.cacheBlocked             6                       # Number of times an access to memory failed due to the cache being blocked
system.cpu.iew.iewIdleCycles                        0                       # Number of cycles IEW is idle
system.cpu.iew.iewSquashCycles                  58763                       # Number of cycles IEW is squashing
system.cpu.iew.iewBlockCycles                   42148                       # Number of cycles IEW is blocking
system.cpu.iew.iewUnblockCycles                  1133                       # Number of cycles IEW is unblocking
system.cpu.iew.iewDispatchedInsts            21526675                       # Number of instructions dispatched to IQ
system.cpu.iew.iewDispSquashedInsts                 0                       # Number of squashed instructions skipped by dispatch
system.cpu.iew.iewDispLoadInsts               4037864                       # Number of dispatched load instructions
system.cpu.iew.iewDispStoreInsts              1702688                       # Number of dispatched store instructions
system.cpu.iew.iewDispNonSpecInsts                 62                       # Number of dispatched non-speculative instructions
system.cpu.iew.iewIQFullEvents                      7                       # Number of times the IQ has become full, causing a stall
system.cpu.iew.iewLSQFullEvents                  1086                       # Number of times the LSQ has become full, causing a stall
system.cpu.iew.memOrderViolationEvents             77                       # Number of memory order violations
system.cpu.iew.predictedTakenIncorrect          33261                       # Number of branches that were predicted taken incorrectly
system.cpu.iew.predictedNotTakenIncorrect        25739                       # Number of branches that were predicted not taken incorrectly
system.cpu.iew.branchMispredicts                59000                       # Number of branch mispredicts detected at execute
system.cpu.iew.iewExecutedInsts              20916243                       # Number of executed instructions
system.cpu.iew.iewExecLoadInsts               3891459                       # Number of load instructions executed
system.cpu.iew.iewExecSquashedInsts            105909                       # Number of squashed instructions skipped in execute
system.cpu.iew.exec_swp                             0                       # number of swp insts executed
system.cpu.iew.exec_nop                             0                       # number of nop insts executed
system.cpu.iew.exec_refs                      5505593                       # number of memory reference insts executed
system.cpu.iew.exec_branches                  2059796                       # Number of branches executed
system.cpu.iew.exec_stores                    1614134                       # Number of stores executed
system.cpu.iew.exec_rate                     1.687409                       # Inst execution rate
system.cpu.iew.wb_sent                       20861134                       # cumulative count of insts sent to commit
system.cpu.iew.wb_count                      20817974                       # cumulative count of insts written-back
system.cpu.iew.wb_producers                  15431853                       # num instructions producing a value
system.cpu.iew.wb_consumers                  21875085                       # num instructions consuming a value
system.cpu.iew.wb_rate                       1.679481                       # insts written-back per cycle
system.cpu.iew.wb_fanout                     0.705453                       # average fanout of values written-back
system.cpu.commit.commitSquashedInsts          994101                       # The number of squashed insts skipped by commit
system.cpu.commit.commitNonSpecStalls              18                       # The number of times commit has been forced to stall to communicate backwards
system.cpu.commit.branchMispredicts             58688                       # The number of times a branch was mispredicted
system.cpu.commit.committed_per_cycle::samples     12258153                       # Number of insts commited each cycle
system.cpu.commit.committed_per_cycle::mean     1.666262                       # Number of insts commited each cycle
system.cpu.commit.committed_per_cycle::stdev     0.649439                       # Number of insts commited each cycle
system.cpu.commit.committed_per_cycle::underflows            0      0.00%      0.00% # Number of insts commited each cycle
system.cpu.commit.committed_per_cycle::0      1222227      9.97%      9.97% # Number of insts commited each cycle
system.cpu.commit.committed_per_cycle::1      1646558     13.43%     23.40% # Number of insts commited each cycle
system.cpu.commit.committed_per_cycle::2      9389368     76.60%    100.00% # Number of insts commited each cycle
system.cpu.commit.committed_per_cycle::overflows            0      0.00%    100.00% # Number of insts commited each cycle
system.cpu.commit.committed_per_cycle::min_value            0                       # Number of insts commited each cycle
system.cpu.commit.committed_per_cycle::max_value            2                       # Number of insts commited each cycle
system.cpu.commit.committed_per_cycle::total     12258153                       # Number of insts commited each cycle
system.cpu.commit.committedInsts             11307648                       # Number of instructions committed
system.cpu.commit.committedOps               20425294                       # Number of ops (including micro ops) committed
system.cpu.commit.swp_count                         0                       # Number of s/w prefetches committed
system.cpu.commit.refs                        5244958                       # Number of memory references committed
system.cpu.commit.loads                       3640078                       # Number of loads committed
system.cpu.commit.membars                           0                       # Number of memory barriers committed
system.cpu.commit.branches                    2058725                       # Number of branches committed
system.cpu.commit.vec_insts                         0                       # Number of committed Vector instructions.
system.cpu.commit.fp_insts                     604988                       # Number of committed floating point instructions.
system.cpu.commit.int_insts                  19919729                       # Number of committed integer instructions.
system.cpu.commit.function_calls               138237                       # Number of function calls committed.
system.cpu.commit.op_class_0::No_OpClass        60114      0.29%      0.29% # Class of committed instruction
system.cpu.commit.op_class_0::IntAlu         14640284     71.68%     71.97% # Class of committed instruction
system.cpu.commit.op_class_0::IntMult           46883      0.23%     72.20% # Class of committed instruction
system.cpu.commit.op_class_0::IntDiv               63      0.00%     72.20% # Class of committed instruction
system.cpu.commit.op_class_0::FloatAdd          24011      0.12%     72.32% # Class of committed instruction
system.cpu.commit.op_class_0::FloatCmp              0      0.00%     72.32% # Class of committed instruction
system.cpu.commit.op_class_0::FloatCvt              0      0.00%     72.32% # Class of committed instruction
system.cpu.commit.op_class_0::FloatMult             0      0.00%     72.32% # Class of committed instruction
system.cpu.commit.op_class_0::FloatMultAcc            0      0.00%     72.32% # Class of committed instruction
system.cpu.commit.op_class_0::FloatDiv              0      0.00%     72.32% # Class of committed instruction
system.cpu.commit.op_class_0::FloatMisc             0      0.00%     72.32% # Class of committed instruction
system.cpu.commit.op_class_0::FloatSqrt             0      0.00%     72.32% # Class of committed instruction
system.cpu.commit.op_class_0::SimdAdd             374      0.00%     72.32% # Class of committed instruction
system.cpu.commit.op_class_0::SimdAddAcc            0      0.00%     72.32% # Class of committed instruction
system.cpu.commit.op_class_0::SimdAlu           96084      0.47%     72.79% # Class of committed instruction
system.cpu.commit.op_class_0::SimdCmp               0      0.00%     72.79% # Class of committed instruction
system.cpu.commit.op_class_0::SimdCvt           96112      0.47%     73.26% # Class of committed instruction
system.cpu.commit.op_class_0::SimdMisc         216225      1.06%     74.32% # Class of committed instruction
system.cpu.commit.op_class_0::SimdMult              0      0.00%     74.32% # Class of committed instruction
system.cpu.commit.op_class_0::SimdMultAcc            0      0.00%     74.32% # Class of committed instruction
system.cpu.commit.op_class_0::SimdShift           186      0.00%     74.32% # Class of committed instruction
system.cpu.commit.op_class_0::SimdShiftAcc            0      0.00%     74.32% # Class of committed instruction
system.cpu.commit.op_class_0::SimdSqrt              0      0.00%     74.32% # Class of committed instruction
system.cpu.commit.op_class_0::SimdFloatAdd            0      0.00%     74.32% # Class of committed instruction
system.cpu.commit.op_class_0::SimdFloatAlu            0      0.00%     74.32% # Class of committed instruction
system.cpu.commit.op_class_0::SimdFloatCmp            0      0.00%     74.32% # Class of committed instruction
system.cpu.commit.op_class_0::SimdFloatCvt            0      0.00%     74.32% # Class of committed instruction
system.cpu.commit.op_class_0::SimdFloatDiv            0      0.00%     74.32% # Class of committed instruction
system.cpu.commit.op_class_0::SimdFloatMisc            0      0.00%     74.32% # Class of committed instruction
system.cpu.commit.op_class_0::SimdFloatMult            0      0.00%     74.32% # Class of committed instruction
system.cpu.commit.op_class_0::SimdFloatMultAcc            0      0.00%     74.32% # Class of committed instruction
system.cpu.commit.op_class_0::SimdFloatSqrt            0      0.00%     74.32% # Class of committed instruction
system.cpu.commit.op_class_0::SimdAes               0      0.00%     74.32% # Class of committed instruction
system.cpu.commit.op_class_0::SimdAesMix            0      0.00%     74.32% # Class of committed instruction
system.cpu.commit.op_class_0::SimdSha1Hash            0      0.00%     74.32% # Class of committed instruction
system.cpu.commit.op_class_0::SimdSha1Hash2            0      0.00%     74.32% # Class of committed instruction
system.cpu.commit.op_class_0::SimdSha256Hash            0      0.00%     74.32% # Class of committed instruction
system.cpu.commit.op_class_0::SimdSha256Hash2            0      0.00%     74.32% # Class of committed instruction
system.cpu.commit.op_class_0::SimdShaSigma2            0      0.00%     74.32% # Class of committed instruction
system.cpu.commit.op_class_0::SimdShaSigma3            0      0.00%     74.32% # Class of committed instruction
system.cpu.commit.op_class_0::MemRead         3568018     17.47%     91.79% # Class of committed instruction
system.cpu.commit.op_class_0::MemWrite        1577457      7.72%     99.51% # Class of committed instruction
system.cpu.commit.op_class_0::FloatMemRead        72060      0.35%     99.87% # Class of committed instruction
system.cpu.commit.op_class_0::FloatMemWrite        27423      0.13%    100.00% # Class of committed instruction
system.cpu.commit.op_class_0::IprAccess             0      0.00%    100.00% # Class of committed instruction
system.cpu.commit.op_class_0::InstPrefetch            0      0.00%    100.00% # Class of committed instruction
system.cpu.commit.op_class_0::total          20425294                       # Class of committed instruction
system.cpu.commit.bw_lim_events               9389368                       # number cycles where commit BW limit reached
system.cpu.rob.rob_reads                     24288180                       # The number of ROB reads
system.cpu.rob.rob_writes                    42938758                       # The number of ROB writes
system.cpu.timesIdled                             385                       # Number of times that the entire CPU went into an idle state and unscheduled itself
system.cpu.idleCycles                           37361                       # Total number of cycles that the CPU has spent unscheduled due to idling
system.cpu.committedInsts                    11307648                       # Number of Instructions Simulated
system.cpu.committedOps                      20425294                       # Number of Ops (including micro ops) Simulated
system.cpu.cpi                               1.096203                       # CPI: Cycles Per Instruction
system.cpu.cpi_total                         1.096203                       # CPI: Total CPI of All Threads
system.cpu.ipc                               0.912239                       # IPC: Instructions Per Cycle
system.cpu.ipc_total                         0.912239                       # IPC: Total IPC of All Threads
system.cpu.int_regfile_reads                 32349667                       # number of integer regfile reads
system.cpu.int_regfile_writes                16653128                       # number of integer regfile writes
system.cpu.fp_regfile_reads                   1014872                       # number of floating regfile reads
system.cpu.fp_regfile_writes                   529515                       # number of floating regfile writes
system.cpu.cc_regfile_reads                  10524542                       # number of cc regfile reads
system.cpu.cc_regfile_writes                  6705913                       # number of cc regfile writes
system.cpu.misc_regfile_reads                 9641135                       # number of misc regfile reads
system.cpu.dcache.tags.pwrStateResidencyTicks::UNDEFINED   6197740500                       # Cumulative time (in ticks) in various power states
system.cpu.dcache.tags.tagsinuse           509.107388                       # Cycle average of tags in use
system.cpu.dcache.tags.total_refs             4972461                       # Total number of references to valid blocks.
system.cpu.dcache.tags.sampled_refs              1276                       # Sample count of references to valid blocks.
system.cpu.dcache.tags.avg_refs           3896.913009                       # Average number of references to valid blocks.
system.cpu.dcache.tags.warmup_cycle            167500                       # Cycle when the warmup percentage was hit.
system.cpu.dcache.tags.occ_blocks::.cpu.data   509.107388                       # Average occupied blocks per requestor
system.cpu.dcache.tags.occ_percent::.cpu.data     0.994350                       # Average percentage of cache occupancy
system.cpu.dcache.tags.occ_percent::total     0.994350                       # Average percentage of cache occupancy
system.cpu.dcache.tags.occ_task_id_blocks::1024          512                       # Occupied blocks per task id
system.cpu.dcache.tags.age_task_id_blocks_1024::0           26                       # Occupied blocks per task id
system.cpu.dcache.tags.age_task_id_blocks_1024::1           12                       # Occupied blocks per task id
system.cpu.dcache.tags.age_task_id_blocks_1024::2           80                       # Occupied blocks per task id
system.cpu.dcache.tags.age_task_id_blocks_1024::3          394                       # Occupied blocks per task id
system.cpu.dcache.tags.occ_task_id_percent::1024            1                       # Percentage of cache occupancy per task id
system.cpu.dcache.tags.tag_accesses          39782148                       # Number of tag accesses
system.cpu.dcache.tags.data_accesses         39782148                       # Number of data accesses
system.cpu.dcache.pwrStateResidencyTicks::UNDEFINED   6197740500                       # Cumulative time (in ticks) in various power states
system.cpu.dcache.ReadReq_hits::.cpu.data      3366991                       # number of ReadReq hits
system.cpu.dcache.ReadReq_hits::total         3366991                       # number of ReadReq hits
system.cpu.dcache.WriteReq_hits::.cpu.data      1604194                       # number of WriteReq hits
system.cpu.dcache.WriteReq_hits::total        1604194                       # number of WriteReq hits
system.cpu.dcache.demand_hits::.cpu.data      4971185                       # number of demand (read+write) hits
system.cpu.dcache.demand_hits::total          4971185                       # number of demand (read+write) hits
system.cpu.dcache.overall_hits::.cpu.data      4971185                       # number of overall hits
system.cpu.dcache.overall_hits::total         4971185                       # number of overall hits
system.cpu.dcache.ReadReq_misses::.cpu.data          539                       # number of ReadReq misses
system.cpu.dcache.ReadReq_misses::total           539                       # number of ReadReq misses
system.cpu.dcache.WriteReq_misses::.cpu.data          885                       # number of WriteReq misses
system.cpu.dcache.WriteReq_misses::total          885                       # number of WriteReq misses
system.cpu.dcache.demand_misses::.cpu.data         1424                       # number of demand (read+write) misses
system.cpu.dcache.demand_misses::total           1424                       # number of demand (read+write) misses
system.cpu.dcache.overall_misses::.cpu.data         1424                       # number of overall misses
system.cpu.dcache.overall_misses::total          1424                       # number of overall misses
system.cpu.dcache.ReadReq_miss_latency::.cpu.data     24656500                       # number of ReadReq miss cycles
system.cpu.dcache.ReadReq_miss_latency::total     24656500                       # number of ReadReq miss cycles
system.cpu.dcache.WriteReq_miss_latency::.cpu.data     54981499                       # number of WriteReq miss cycles
system.cpu.dcache.WriteReq_miss_latency::total     54981499                       # number of WriteReq miss cycles
system.cpu.dcache.demand_miss_latency::.cpu.data     79637999                       # number of demand (read+write) miss cycles
system.cpu.dcache.demand_miss_latency::total     79637999                       # number of demand (read+write) miss cycles
system.cpu.dcache.overall_miss_latency::.cpu.data     79637999                       # number of overall miss cycles
system.cpu.dcache.overall_miss_latency::total     79637999                       # number of overall miss cycles
system.cpu.dcache.ReadReq_accesses::.cpu.data      3367530                       # number of ReadReq accesses(hits+misses)
system.cpu.dcache.ReadReq_accesses::total      3367530                       # number of ReadReq accesses(hits+misses)
system.cpu.dcache.WriteReq_accesses::.cpu.data      1605079                       # number of WriteReq accesses(hits+misses)
system.cpu.dcache.WriteReq_accesses::total      1605079                       # number of WriteReq accesses(hits+misses)
system.cpu.dcache.demand_accesses::.cpu.data      4972609                       # number of demand (read+write) accesses
system.cpu.dcache.demand_accesses::total      4972609                       # number of demand (read+write) accesses
system.cpu.dcache.overall_accesses::.cpu.data      4972609                       # number of overall (read+write) accesses
system.cpu.dcache.overall_accesses::total      4972609                       # number of overall (read+write) accesses
system.cpu.dcache.ReadReq_miss_rate::.cpu.data     0.000160                       # miss rate for ReadReq accesses
system.cpu.dcache.ReadReq_miss_rate::total     0.000160                       # miss rate for ReadReq accesses
system.cpu.dcache.WriteReq_miss_rate::.cpu.data     0.000551                       # miss rate for WriteReq accesses
system.cpu.dcache.WriteReq_miss_rate::total     0.000551                       # miss rate for WriteReq accesses
system.cpu.dcache.demand_miss_rate::.cpu.data     0.000286                       # miss rate for demand accesses
system.cpu.dcache.demand_miss_rate::total     0.000286                       # miss rate for demand accesses
system.cpu.dcache.overall_miss_rate::.cpu.data     0.000286                       # miss rate for overall accesses
system.cpu.dcache.overall_miss_rate::total     0.000286                       # miss rate for overall accesses
system.cpu.dcache.ReadReq_avg_miss_latency::.cpu.data 45744.897959                       # average ReadReq miss latency
system.cpu.dcache.ReadReq_avg_miss_latency::total 45744.897959                       # average ReadReq miss latency
system.cpu.dcache.WriteReq_avg_miss_latency::.cpu.data 62125.987571                       # average WriteReq miss latency
system.cpu.dcache.WriteReq_avg_miss_latency::total 62125.987571                       # average WriteReq miss latency
system.cpu.dcache.demand_avg_miss_latency::.cpu.data 55925.561096                       # average overall miss latency
system.cpu.dcache.demand_avg_miss_latency::total 55925.561096                       # average overall miss latency
system.cpu.dcache.overall_avg_miss_latency::.cpu.data 55925.561096                       # average overall miss latency
[...]
system.l3bus.snoop_fanout::1                        0      0.00%    100.00% # Request fanout histogram
system.l3bus.snoop_fanout::overflows                0      0.00%    100.00% # Request fanout histogram
system.l3bus.snoop_fanout::min_value                0                       # Request fanout histogram
system.l3bus.snoop_fanout::max_value                0                       # Request fanout histogram
system.l3bus.snoop_fanout::total                 1300                       # Request fanout histogram
system.l3bus.reqLayer0.occupancy               650000                       # Layer occupancy (ticks)
system.l3bus.reqLayer0.utilization                0.0                       # Layer utilization (%)
system.l3bus.respLayer0.occupancy             3250000                       # Layer occupancy (ticks)
system.l3bus.respLayer0.utilization               0.1                       # Layer utilization (%)
system.l3cache.tags.pwrStateResidencyTicks::UNDEFINED   6197740500                       # Cumulative time (in ticks) in various power states
system.l3cache.tags.tagsinuse             1207.920499                       # Cycle average of tags in use
system.l3cache.tags.total_refs                   1300                       # Total number of references to valid blocks.
system.l3cache.tags.sampled_refs                 1300                       # Sample count of references to valid blocks.
system.l3cache.tags.avg_refs                        1                       # Average number of references to valid blocks.
system.l3cache.tags.warmup_cycle                76000                       # Cycle when the warmup percentage was hit.
system.l3cache.tags.occ_blocks::.cpu.inst   479.099623                       # Average occupied blocks per requestor
system.l3cache.tags.occ_blocks::.cpu.data   728.820876                       # Average occupied blocks per requestor
system.l3cache.tags.occ_percent::.cpu.inst     0.014621                       # Average percentage of cache occupancy
system.l3cache.tags.occ_percent::.cpu.data     0.022242                       # Average percentage of cache occupancy
system.l3cache.tags.occ_percent::total       0.036863                       # Average percentage of cache occupancy
system.l3cache.tags.occ_task_id_blocks::1024         1300                       # Occupied blocks per task id
system.l3cache.tags.age_task_id_blocks_1024::0           64                       # Occupied blocks per task id
system.l3cache.tags.age_task_id_blocks_1024::3         1236                       # Occupied blocks per task id
system.l3cache.tags.occ_task_id_percent::1024     0.039673                       # Percentage of cache occupancy per task id
system.l3cache.tags.tag_accesses                22100                       # Number of tag accesses
system.l3cache.tags.data_accesses               22100                       # Number of data accesses
system.l3cache.pwrStateResidencyTicks::UNDEFINED   6197740500                       # Cumulative time (in ticks) in various power states
system.l3cache.ReadExReq_misses::.cpu.data          629                       # number of ReadExReq misses
system.l3cache.ReadExReq_misses::total            629                       # number of ReadExReq misses
system.l3cache.ReadSharedReq_misses::.cpu.inst          542                       # number of ReadSharedReq misses
system.l3cache.ReadSharedReq_misses::.cpu.data          129                       # number of ReadSharedReq misses
system.l3cache.ReadSharedReq_misses::total          671                       # number of ReadSharedReq misses
system.l3cache.demand_misses::.cpu.inst           542                       # number of demand (read+write) misses
system.l3cache.demand_misses::.cpu.data           758                       # number of demand (read+write) misses
system.l3cache.demand_misses::total              1300                       # number of demand (read+write) misses
system.l3cache.overall_misses::.cpu.inst          542                       # number of overall misses
system.l3cache.overall_misses::.cpu.data          758                       # number of overall misses
system.l3cache.overall_misses::total             1300                       # number of overall misses
system.l3cache.ReadExReq_miss_latency::.cpu.data     43209000                       # number of ReadExReq miss cycles
system.l3cache.ReadExReq_miss_latency::total     43209000                       # number of ReadExReq miss cycles
system.l3cache.ReadSharedReq_miss_latency::.cpu.inst     40631500                       # number of ReadSharedReq miss cycles
system.l3cache.ReadSharedReq_miss_latency::.cpu.data     11380000                       # number of ReadSharedReq miss cycles
system.l3cache.ReadSharedReq_miss_latency::total     52011500                       # number of ReadSharedReq miss cycles
system.l3cache.demand_miss_latency::.cpu.inst     40631500                       # number of demand (read+write) miss cycles
system.l3cache.demand_miss_latency::.cpu.data     54589000                       # number of demand (read+write) miss cycles
system.l3cache.demand_miss_latency::total     95220500                       # number of demand (read+write) miss cycles
system.l3cache.overall_miss_latency::.cpu.inst     40631500                       # number of overall miss cycles
system.l3cache.overall_miss_latency::.cpu.data     54589000                       # number of overall miss cycles
system.l3cache.overall_miss_latency::total     95220500                       # number of overall miss cycles
system.l3cache.ReadExReq_accesses::.cpu.data          629                       # number of ReadExReq accesses(hits+misses)
system.l3cache.ReadExReq_accesses::total          629                       # number of ReadExReq accesses(hits+misses)
system.l3cache.ReadSharedReq_accesses::.cpu.inst          542                       # number of ReadSharedReq accesses(hits+misses)
system.l3cache.ReadSharedReq_accesses::.cpu.data          129                       # number of ReadSharedReq accesses(hits+misses)
system.l3cache.ReadSharedReq_accesses::total          671                       # number of ReadSharedReq accesses(hits+misses)
system.l3cache.demand_accesses::.cpu.inst          542                       # number of demand (read+write) accesses
system.l3cache.demand_accesses::.cpu.data          758                       # number of demand (read+write) accesses
system.l3cache.demand_accesses::total            1300                       # number of demand (read+write) accesses
system.l3cache.overall_accesses::.cpu.inst          542                       # number of overall (read+write) accesses
system.l3cache.overall_accesses::.cpu.data          758                       # number of overall (read+write) accesses
system.l3cache.overall_accesses::total           1300                       # number of overall (read+write) accesses
system.l3cache.ReadExReq_miss_rate::.cpu.data            1                       # miss rate for ReadExReq accesses
system.l3cache.ReadExReq_miss_rate::total            1                       # miss rate for ReadExReq accesses
system.l3cache.ReadSharedReq_miss_rate::.cpu.inst            1                       # miss rate for ReadSharedReq accesses
system.l3cache.ReadSharedReq_miss_rate::.cpu.data            1                       # miss rate for ReadSharedReq accesses
system.l3cache.ReadSharedReq_miss_rate::total            1                       # miss rate for ReadSharedReq accesses
system.l3cache.demand_miss_rate::.cpu.inst            1                       # miss rate for demand accesses
system.l3cache.demand_miss_rate::.cpu.data            1                       # miss rate for demand accesses
system.l3cache.demand_miss_rate::total              1                       # miss rate for demand accesses
system.l3cache.overall_miss_rate::.cpu.inst            1                       # miss rate for overall accesses
system.l3cache.overall_miss_rate::.cpu.data            1                       # miss rate for overall accesses
system.l3cache.overall_miss_rate::total             1                       # miss rate for overall accesses
system.l3cache.ReadExReq_avg_miss_latency::.cpu.data 68694.753577                       # average ReadExReq miss latency
system.l3cache.ReadExReq_avg_miss_latency::total 68694.753577                       # average ReadExReq miss latency
system.l3cache.ReadSharedReq_avg_miss_latency::.cpu.inst 74965.867159                       # average ReadSharedReq miss latency
system.l3cache.ReadSharedReq_avg_miss_latency::.cpu.data 88217.054264                       # average ReadSharedReq miss latency
system.l3cache.ReadSharedReq_avg_miss_latency::total 77513.412817                       # average ReadSharedReq miss latency
system.l3cache.demand_avg_miss_latency::.cpu.inst 74965.867159                       # average overall miss latency
system.l3cache.demand_avg_miss_latency::.cpu.data 72017.150396                       # average overall miss latency
system.l3cache.demand_avg_miss_latency::total 73246.538462                       # average overall miss latency
system.l3cache.overall_avg_miss_latency::.cpu.inst 74965.867159                       # average overall miss latency
system.l3cache.overall_avg_miss_latency::.cpu.data 72017.150396                       # average overall miss latency
system.l3cache.overall_avg_miss_latency::total 73246.538462                       # average overall miss latency
system.l3cache.blocked_cycles::no_mshrs             0                       # number of cycles access was blocked
system.l3cache.blocked_cycles::no_targets            0                       # number of cycles access was blocked
system.l3cache.blocked::no_mshrs                    0                       # number of cycles access was blocked
system.l3cache.blocked::no_targets                  0                       # number of cycles access was blocked
system.l3cache.avg_blocked_cycles::no_mshrs          nan                       # average number of cycles each access was blocked
system.l3cache.avg_blocked_cycles::no_targets          nan                       # average number of cycles each access was blocked
system.l3cache.ReadExReq_mshr_misses::.cpu.data          629                       # number of ReadExReq MSHR misses
system.l3cache.ReadExReq_mshr_misses::total          629                       # number of ReadExReq MSHR misses
system.l3cache.ReadSharedReq_mshr_misses::.cpu.inst          542                       # number of ReadSharedReq MSHR misses
system.l3cache.ReadSharedReq_mshr_misses::.cpu.data          129                       # number of ReadSharedReq MSHR misses
system.l3cache.ReadSharedReq_mshr_misses::total          671                       # number of ReadSharedReq MSHR misses
system.l3cache.demand_mshr_misses::.cpu.inst          542                       # number of demand (read+write) MSHR misses
system.l3cache.demand_mshr_misses::.cpu.data          758                       # number of demand (read+write) MSHR misses
system.l3cache.demand_mshr_misses::total         1300                       # number of demand (read+write) MSHR misses
system.l3cache.overall_mshr_misses::.cpu.inst          542                       # number of overall MSHR misses
system.l3cache.overall_mshr_misses::.cpu.data          758                       # number of overall MSHR misses
system.l3cache.overall_mshr_misses::total         1300                       # number of overall MSHR misses
system.l3cache.ReadExReq_mshr_miss_latency::.cpu.data     41951000                       # number of ReadExReq MSHR miss cycles
system.l3cache.ReadExReq_mshr_miss_latency::total     41951000                       # number of ReadExReq MSHR miss cycles
system.l3cache.ReadSharedReq_mshr_miss_latency::.cpu.inst     39547500                       # number of ReadSharedReq MSHR miss cycles
system.l3cache.ReadSharedReq_mshr_miss_latency::.cpu.data     11122000                       # number of ReadSharedReq MSHR miss cycles
system.l3cache.ReadSharedReq_mshr_miss_latency::total     50669500                       # number of ReadSharedReq MSHR miss cycles
system.l3cache.demand_mshr_miss_latency::.cpu.inst     39547500                       # number of demand (read+write) MSHR miss cycles
system.l3cache.demand_mshr_miss_latency::.cpu.data     53073000                       # number of demand (read+write) MSHR miss cycles
system.l3cache.demand_mshr_miss_latency::total     92620500                       # number of demand (read+write) MSHR miss cycles
system.l3cache.overall_mshr_miss_latency::.cpu.inst     39547500                       # number of overall MSHR miss cycles
system.l3cache.overall_mshr_miss_latency::.cpu.data     53073000                       # number of overall MSHR miss cycles
system.l3cache.overall_mshr_miss_latency::total     92620500                       # number of overall MSHR miss cycles
system.l3cache.ReadExReq_mshr_miss_rate::.cpu.data            1                       # mshr miss rate for ReadExReq accesses
system.l3cache.ReadExReq_mshr_miss_rate::total            1                       # mshr miss rate for ReadExReq accesses
system.l3cache.ReadSharedReq_mshr_miss_rate::.cpu.inst            1                       # mshr miss rate for ReadSharedReq accesses
system.l3cache.ReadSharedReq_mshr_miss_rate::.cpu.data            1                       # mshr miss rate for ReadSharedReq accesses
system.l3cache.ReadSharedReq_mshr_miss_rate::total            1                       # mshr miss rate for ReadSharedReq accesses
system.l3cache.demand_mshr_miss_rate::.cpu.inst            1                       # mshr miss rate for demand accesses
system.l3cache.demand_mshr_miss_rate::.cpu.data            1                       # mshr miss rate for demand accesses
system.l3cache.demand_mshr_miss_rate::total            1                       # mshr miss rate for demand accesses
system.l3cache.overall_mshr_miss_rate::.cpu.inst            1                       # mshr miss rate for overall accesses
system.l3cache.overall_mshr_miss_rate::.cpu.data            1                       # mshr miss rate for overall accesses
system.l3cache.overall_mshr_miss_rate::total            1                       # mshr miss rate for overall accesses
system.l3cache.ReadExReq_avg_mshr_miss_latency::.cpu.data 66694.753577                       # average ReadExReq mshr miss latency
system.l3cache.ReadExReq_avg_mshr_miss_latency::total 66694.753577                       # average ReadExReq mshr miss latency
system.l3cache.ReadSharedReq_avg_mshr_miss_latency::.cpu.inst 72965.867159                       # average ReadSharedReq mshr miss latency
system.l3cache.ReadSharedReq_avg_mshr_miss_latency::.cpu.data 86217.054264                       # average ReadSharedReq mshr miss latency
system.l3cache.ReadSharedReq_avg_mshr_miss_latency::total 75513.412817                       # average ReadSharedReq mshr miss latency
system.l3cache.demand_avg_mshr_miss_latency::.cpu.inst 72965.867159                       # average overall mshr miss latency
system.l3cache.demand_avg_mshr_miss_latency::.cpu.data 70017.150396                       # average overall mshr miss latency
system.l3cache.demand_avg_mshr_miss_latency::total 71246.538462                       # average overall mshr miss latency
system.l3cache.overall_avg_mshr_miss_latency::.cpu.inst 72965.867159                       # average overall mshr miss latency
system.l3cache.overall_avg_mshr_miss_latency::.cpu.data 70017.150396                       # average overall mshr miss latency
system.l3cache.overall_avg_mshr_miss_latency::total 71246.538462                       # average overall mshr miss latency
system.l3cache.replacements                         0                       # number of replacements
system.membus.snoop_filter.tot_requests          1300                       # Total number of requests made to the snoop filter.
system.membus.snoop_filter.hit_single_requests            0                       # Number of requests hitting in the snoop filter with a single holder of the requested data.
system.membus.snoop_filter.hit_multi_requests            0                       # Number of requests hitting in the snoop filter with multiple (>1) holders of the requested data.
system.membus.snoop_filter.tot_snoops               0                       # Total number of snoops made to the snoop filter.
system.membus.snoop_filter.hit_single_snoops            0                       # Number of snoops hitting in the snoop filter with a single holder of the requested data.
system.membus.snoop_filter.hit_multi_snoops            0                       # Number of snoops hitting in the snoop filter with multiple (>1) holders of the requested data.
system.membus.pwrStateResidencyTicks::UNDEFINED   6197740500                       # Cumulative time (in ticks) in various power states
system.membus.trans_dist::ReadResp                671                       # Transaction distribution
system.membus.trans_dist::ReadExReq               629                       # Transaction distribution
system.membus.trans_dist::ReadExResp              629                       # Transaction distribution
system.membus.trans_dist::ReadSharedReq           671                       # Transaction distribution
system.membus.pkt_count_system.l3cache.mem_side::system.mem_ctrl.port         2600                       # Packet count per connected master and slave (bytes)
system.membus.pkt_count_system.l3cache.mem_side::total         2600                       # Packet count per connected master and slave (bytes)
system.membus.pkt_count::total                   2600                       # Packet count per connected master and slave (bytes)
system.membus.pkt_size_system.l3cache.mem_side::system.mem_ctrl.port        83200                       # Cumulative packet size per connected master and slave (bytes)
system.membus.pkt_size_system.l3cache.mem_side::total        83200                       # Cumulative packet size per connected master and slave (bytes)
system.membus.pkt_size::total                   83200                       # Cumulative packet size per connected master and slave (bytes)
system.membus.snoops                                0                       # Total snoops (count)
system.membus.snoopTraffic                          0                       # Total snoop traffic (bytes)
system.membus.snoop_fanout::samples              1300                       # Request fanout histogram
system.membus.snoop_fanout::mean                    0                       # Request fanout histogram
system.membus.snoop_fanout::stdev                   0                       # Request fanout histogram
system.membus.snoop_fanout::underflows              0      0.00%      0.00% # Request fanout histogram
system.membus.snoop_fanout::0                    1300    100.00%    100.00% # Request fanout histogram
system.membus.snoop_fanout::1                       0      0.00%    100.00% # Request fanout histogram
system.membus.snoop_fanout::overflows               0      0.00%    100.00% # Request fanout histogram
system.membus.snoop_fanout::min_value               0                       # Request fanout histogram
system.membus.snoop_fanout::max_value               0                       # Request fanout histogram
system.membus.snoop_fanout::total                1300                       # Request fanout histogram
system.membus.reqLayer0.occupancy              650000                       # Layer occupancy (ticks)
system.membus.reqLayer0.utilization               0.0                       # Layer utilization (%)
system.membus.respLayer0.occupancy            3506750                       # Layer occupancy (ticks)
system.membus.respLayer0.utilization              0.1                       # Layer utilization (%)

---------- End Simulation Statistics   ----------
