
---------- Begin Simulation Statistics ----------
sim_seconds                                  0.007231                       # Number of seconds simulated
sim_ticks                                  7230778000                       # Number of ticks simulated
final_tick                                 7230778000                       # Number of ticks from beginning of simulation (restored from checkpoints and never reset)
sim_freq                                 1000000000000                       # Frequency of simulated ticks
host_inst_rate                                  71154                       # Simulator instruction rate (inst/s)
host_op_rate                                   336897                       # Simulator op (including micro ops) rate (op/s)
host_tick_rate                              100241914                       # Simulator tick rate (ticks/s)
host_mem_usage                                 660704                       # Number of bytes of host memory used
host_seconds                                    72.13                       # Real time elapsed on the host
sim_insts                                     5132577                       # Number of instructions simulated
sim_ops                                      24301499                       # Number of ops (including micro ops) simulated
system.clk_domain.voltage_domain.voltage            1                       # Voltage in Volts
system.clk_domain.clock                           500                       # Clock period in ticks
system.mem_ctrl.pwrStateResidencyTicks::UNDEFINED   7230778000                       # Cumulative time (in ticks) in various power states
system.mem_ctrl.bytes_read::.cpu.inst           31424                       # Number of bytes read from this memory
system.mem_ctrl.bytes_read::.cpu.data           16192                       # Number of bytes read from this memory
system.mem_ctrl.bytes_read::total               47616                       # Number of bytes read from this memory
system.mem_ctrl.bytes_inst_read::.cpu.inst        31424                       # Number of instructions bytes read from this memory
system.mem_ctrl.bytes_inst_read::total          31424                       # Number of instructions bytes read from this memory
system.mem_ctrl.num_reads::.cpu.inst              491                       # Number of read requests responded to by this memory
system.mem_ctrl.num_reads::.cpu.data              253                       # Number of read requests responded to by this memory
system.mem_ctrl.num_reads::total                  744                       # Number of read requests responded to by this memory
system.mem_ctrl.bw_read::.cpu.inst            4345867                       # Total read bandwidth from this memory (bytes/s)
system.mem_ctrl.bw_read::.cpu.data            2239316                       # Total read bandwidth from this memory (bytes/s)
system.mem_ctrl.bw_read::total                6585184                       # Total read bandwidth from this memory (bytes/s)
system.mem_ctrl.bw_inst_read::.cpu.inst       4345867                       # Instruction read bandwidth from this memory (bytes/s)
system.mem_ctrl.bw_inst_read::total           4345867                       # Instruction read bandwidth from this memory (bytes/s)
system.mem_ctrl.bw_total::.cpu.inst           4345867                       # Total bandwidth to/from this memory (bytes/s)
system.mem_ctrl.bw_total::.cpu.data           2239316                       # Total bandwidth to/from this memory (bytes/s)
system.mem_ctrl.bw_total::total               6585184                       # Total bandwidth to/from this memory (bytes/s)
system.mem_ctrl.avgPriority_.cpu.inst::samples       491.00                       # Average QoS priority value for accepted requests
system.mem_ctrl.avgPriority_.cpu.data::samples       253.00                       # Average QoS priority value for accepted requests
system.mem_ctrl.priorityMinLatency       0.000000018750                       # per QoS priority minimum request to response latency (s)
system.mem_ctrl.priorityMaxLatency       0.000001099750                       # per QoS priority maximum request to response latency (s)
system.mem_ctrl.numReadWriteTurnArounds             0                       # Number of turnarounds from READ to WRITE
system.mem_ctrl.numWriteReadTurnArounds             0                       # Number of turnarounds from WRITE to READ
system.mem_ctrl.numStayReadState                 1501                       # Number of times bus staying in READ state
system.mem_ctrl.numStayWriteState                   0                       # Number of times bus staying in WRITE state
system.mem_ctrl.readReqs                          744                       # Number of read requests accepted
system.mem_ctrl.writeReqs                           0                       # Number of write requests accepted
system.mem_ctrl.readBursts                        744                       # Number of DRAM read bursts, including those serviced by the write queue
system.mem_ctrl.writeBursts                         0                       # Number of DRAM write bursts, including those merged in the write queue
system.mem_ctrl.bytesReadDRAM                   47616                       # Total number of bytes read from DRAM
system.mem_ctrl.bytesReadWrQ                        0                       # Total number of bytes read from write queue
system.mem_ctrl.bytesWritten                        0                       # Total number of bytes written to DRAM
system.mem_ctrl.bytesReadSys                    47616                       # Total read bytes from the system interface side
system.mem_ctrl.bytesWrittenSys                     0                       # Total written bytes from the system interface side
system.mem_ctrl.servicedByWrQ                       0                       # Number of DRAM read bursts serviced by the write queue
system.mem_ctrl.mergedWrBursts                      0                       # Number of DRAM write bursts merged with an existing one
system.mem_ctrl.neitherReadNorWriteReqs             0                       # Number of requests that are neither read nor write
system.mem_ctrl.perBankRdBursts::0                156                       # Per bank write bursts
system.mem_ctrl.perBankRdBursts::1                 19                       # Per bank write bursts
system.mem_ctrl.perBankRdBursts::2                 23                       # Per bank write bursts
system.mem_ctrl.perBankRdBursts::3                  8                       # Per bank write bursts
system.mem_ctrl.perBankRdBursts::4                  4                       # Per bank write bursts
system.mem_ctrl.perBankRdBursts::5                 15                       # Per bank write bursts
system.mem_ctrl.perBankRdBursts::6                 59                       # Per bank write bursts
system.mem_ctrl.perBankRdBursts::7                 43                       # Per bank write bursts
system.mem_ctrl.perBankRdBursts::8                  4                       # Per bank write bursts
system.mem_ctrl.perBankRdBursts::9                 28                       # Per bank write bursts
system.mem_ctrl.perBankRdBursts::10                48                       # Per bank write bursts
system.mem_ctrl.perBankRdBursts::11                21                       # Per bank write bursts
system.mem_ctrl.perBankRdBursts::12                98                       # Per bank write bursts
system.mem_ctrl.perBankRdBursts::13                58                       # Per bank write bursts
system.mem_ctrl.perBankRdBursts::14               108                       # Per bank write bursts
system.mem_ctrl.perBankRdBursts::15                52                       # Per bank write bursts
system.mem_ctrl.perBankWrBursts::0                  0                       # Per bank write bursts
system.mem_ctrl.perBankWrBursts::1                  0                       # Per bank write bursts
system.mem_ctrl.perBankWrBursts::2                  0                       # Per bank write bursts
system.mem_ctrl.perBankWrBursts::3                  0                       # Per bank write bursts
system.mem_ctrl.perBankWrBursts::4                  0                       # Per bank write bursts
system.mem_ctrl.perBankWrBursts::5                  0                       # Per bank write bursts
system.mem_ctrl.perBankWrBursts::6                  0                       # Per bank write bursts
system.mem_ctrl.perBankWrBursts::7                  0                       # Per bank write bursts
system.mem_ctrl.perBankWrBursts::8                  0                       # Per bank write bursts
system.mem_ctrl.perBankWrBursts::9                  0                       # Per bank write bursts
system.mem_ctrl.perBankWrBursts::10                 0                       # Per bank write bursts
system.mem_ctrl.perBankWrBursts::11                 0                       # Per bank write bursts
system.mem_ctrl.perBankWrBursts::12                 0                       # Per bank write bursts
system.mem_ctrl.perBankWrBursts::13                 0                       # Per bank write bursts
system.mem_ctrl.perBankWrBursts::14                 0                       # Per bank write bursts
system.mem_ctrl.perBankWrBursts::15                 0                       # Per bank write bursts
system.mem_ctrl.numRdRetry                          0                       # Number of times read queue was full causing retry
system.mem_ctrl.numWrRetry                          0                       # Number of times write queue was full causing retry
system.mem_ctrl.totGap                     7230689500                       # Total gap between requests
system.mem_ctrl.readPktSize::0                      0                       # Read request sizes (log2)
system.mem_ctrl.readPktSize::1                      0                       # Read request sizes (log2)
system.mem_ctrl.readPktSize::2                      0                       # Read request sizes (log2)
system.mem_ctrl.readPktSize::3                      0                       # Read request sizes (log2)
system.mem_ctrl.readPktSize::4                      0                       # Read request sizes (log2)
system.mem_ctrl.readPktSize::5                      0                       # Read request sizes (log2)
system.mem_ctrl.readPktSize::6                    744                       # Read request sizes (log2)
system.mem_ctrl.writePktSize::0                     0                       # Write request sizes (log2)
system.mem_ctrl.writePktSize::1                     0                       # Write request sizes (log2)
system.mem_ctrl.writePktSize::2                     0                       # Write request sizes (log2)
system.mem_ctrl.writePktSize::3                     0                       # Write request sizes (log2)
system.mem_ctrl.writePktSize::4                     0                       # Write request sizes (log2)
system.mem_ctrl.writePktSize::5                     0                       # Write request sizes (log2)
system.mem_ctrl.writePktSize::6                     0                       # Write request sizes (log2)
system.mem_ctrl.rdQLenPdf::0                      525                       # What read queue length does an incoming req see
system.mem_ctrl.rdQLenPdf::1                      179                       # What read queue length does an incoming req see
system.mem_ctrl.rdQLenPdf::2                       32                       # What read queue length does an incoming req see
system.mem_ctrl.rdQLenPdf::3                        7                       # What read queue length does an incoming req see
system.mem_ctrl.rdQLenPdf::4                        1                       # What read queue length does an incoming req see
system.mem_ctrl.rdQLenPdf::5                        0                       # What read queue length does an incoming req see
system.mem_ctrl.rdQLenPdf::6                        0                       # What read queue length does an incoming req see
system.mem_ctrl.rdQLenPdf::7                        0                       # What read queue length does an incoming req see
system.mem_ctrl.rdQLenPdf::8                        0                       # What read queue length does an incoming req see
system.mem_ctrl.rdQLenPdf::9                        0                       # What read queue length does an incoming req see
system.mem_ctrl.rdQLenPdf::10                       0                       # What read queue length does an incoming req see
system.mem_ctrl.rdQLenPdf::11                       0                       # What read queue length does an incoming req see
system.mem_ctrl.rdQLenPdf::12                       0                       # What read queue length does an incoming req see
system.mem_ctrl.rdQLenPdf::13                       0                       # What read queue length does an incoming req see
system.mem_ctrl.rdQLenPdf::14                       0                       # What read queue length does an incoming req see
system.mem_ctrl.rdQLenPdf::15                       0                       # What read queue length does an incoming req see
system.mem_ctrl.rdQLenPdf::16                       0                       # What read queue length does an incoming req see
system.mem_ctrl.rdQLenPdf::17                       0                       # What read queue length does an incoming req see
system.mem_ctrl.rdQLenPdf::18                       0                       # What read queue length does an incoming req see
system.mem_ctrl.rdQLenPdf::19                       0                       # What read queue length does an incoming req see
system.mem_ctrl.rdQLenPdf::20                       0                       # What read queue length does an incoming req see
system.mem_ctrl.rdQLenPdf::21                       0                       # What read queue length does an incoming req see
system.mem_ctrl.rdQLenPdf::22                       0                       # What read queue length does an incoming req see
system.mem_ctrl.rdQLenPdf::23                       0                       # What read queue length does an incoming req see
system.mem_ctrl.rdQLenPdf::24                       0                       # What read queue length does an incoming req see
system.mem_ctrl.rdQLenPdf::25                       0                       # What read queue length does an incoming req see
system.mem_ctrl.rdQLenPdf::26                       0                       # What read queue length does an incoming req see
system.mem_ctrl.rdQLenPdf::27                       0                       # What read queue length does an incoming req see
system.mem_ctrl.rdQLenPdf::28                       0                       # What read queue length does an incoming req see
system.mem_ctrl.rdQLenPdf::29                       0                       # What read queue length does an incoming req see
system.mem_ctrl.rdQLenPdf::30                       0                       # What read queue length does an incoming req see
system.mem_ctrl.rdQLenPdf::31                       0                       # What read queue length does an incoming req see
system.mem_ctrl.wrQLenPdf::0                        0                       # What write queue length does an incoming req see
system.mem_ctrl.wrQLenPdf::1                        0                       # What write queue length does an incoming req see
system.mem_ctrl.wrQLenPdf::2                        0                       # What write queue length does an incoming req see
system.mem_ctrl.wrQLenPdf::3                        0                       # What write queue length does an incoming req see
system.mem_ctrl.wrQLenPdf::4                        0                       # What write queue length does an incoming req see
system.mem_ctrl.wrQLenPdf::5                        0                       # What write queue length does an incoming req see
system.mem_ctrl.wrQLenPdf::6                        0                       # What write queue length does an incoming req see
system.mem_ctrl.wrQLenPdf::7                        0                       # What write queue length does an incoming req see
system.mem_ctrl.wrQLenPdf::8                        0                       # What write queue length does an incoming req see
system.mem_ctrl.wrQLenPdf::9                        0                       # What write queue length does an incoming req see
system.mem_ctrl.wrQLenPdf::10                       0                       # What write queue length does an incoming req see
system.mem_ctrl.wrQLenPdf::11                       0                       # What write queue length does an incoming req see
system.mem_ctrl.wrQLenPdf::12                       0                       # What write queue length does an incoming req see
system.mem_ctrl.wrQLenPdf::13                       0                       # What write queue length does an incoming req see
system.mem_ctrl.wrQLenPdf::14                       0                       # What write queue length does an incoming req see
system.mem_ctrl.wrQLenPdf::15                       0                       # What write queue length does an incoming req see
system.mem_ctrl.wrQLenPdf::16                       0                       # What write queue length does an incoming req see
system.mem_ctrl.wrQLenPdf::17                       0                       # What write queue length does an incoming req see
system.mem_ctrl.wrQLenPdf::18                       0                       # What write queue length does an incoming req see
system.mem_ctrl.wrQLenPdf::19                       0                       # What write queue length does an incoming req see
system.mem_ctrl.wrQLenPdf::20                       0                       # What write queue length does an incoming req see
system.mem_ctrl.wrQLenPdf::21                       0                       # What write queue length does an incoming req see
system.mem_ctrl.wrQLenPdf::22                       0                       # What write queue length does an incoming req see
system.mem_ctrl.wrQLenPdf::23                       0                       # What write queue length does an incoming req see
system.mem_ctrl.wrQLenPdf::24                       0                       # What write queue length does an incoming req see
system.mem_ctrl.wrQLenPdf::25                       0                       # What write queue length does an incoming req see
system.mem_ctrl.wrQLenPdf::26                       0                       # What write queue length does an incoming req see
system.mem_ctrl.wrQLenPdf::27                       0                       # What write queue length does an incoming req see
system.mem_ctrl.wrQLenPdf::28                       0                       # What write queue length does an incoming req see
system.mem_ctrl.wrQLenPdf::29                       0                       # What write queue length does an incoming req see
system.mem_ctrl.wrQLenPdf::30                       0                       # What write queue length does an incoming req see
system.mem_ctrl.wrQLenPdf::31                       0                       # What write queue length does an incoming req see
system.mem_ctrl.wrQLenPdf::32                       0                       # What write queue length does an incoming req see
system.mem_ctrl.wrQLenPdf::33                       0                       # What write queue length does an incoming req see
system.mem_ctrl.wrQLenPdf::34                       0                       # What write queue length does an incoming req see
system.mem_ctrl.wrQLenPdf::35                       0                       # What write queue length does an incoming req see
system.mem_ctrl.wrQLenPdf::36                       0                       # What write queue length does an incoming req see
system.mem_ctrl.wrQLenPdf::37                       0                       # What write queue length does an incoming req see
system.mem_ctrl.wrQLenPdf::38                       0                       # What write queue length does an incoming req see
system.mem_ctrl.wrQLenPdf::39                       0                       # What write queue length does an incoming req see
system.mem_ctrl.wrQLenPdf::40                       0                       # What write queue length does an incoming req see
system.mem_ctrl.wrQLenPdf::41                       0                       # What write queue length does an incoming req see
system.mem_ctrl.wrQLenPdf::42                       0                       # What write queue length does an incoming req see
system.mem_ctrl.wrQLenPdf::43                       0                       # What write queue length does an incoming req see
system.mem_ctrl.wrQLenPdf::44                       0                       # What write queue length does an incoming req see
system.mem_ctrl.wrQLenPdf::45                       0                       # What write queue length does an incoming req see
system.mem_ctrl.wrQLenPdf::46                       0                       # What write queue length does an incoming req see
system.mem_ctrl.wrQLenPdf::47                       0                       # What write queue length does an incoming req see
system.mem_ctrl.wrQLenPdf::48                       0                       # What write queue length does an incoming req see
system.mem_ctrl.wrQLenPdf::49                       0                       # What write queue length does an incoming req see
system.mem_ctrl.wrQLenPdf::50                       0                       # What write queue length does an incoming req see
system.mem_ctrl.wrQLenPdf::51                       0                       # What write queue length does an incoming req see
system.mem_ctrl.wrQLenPdf::52                       0                       # What write queue length does an incoming req see
system.mem_ctrl.wrQLenPdf::53                       0                       # What write queue length does an incoming req see
system.mem_ctrl.wrQLenPdf::54                       0                       # What write queue length does an incoming req see
system.mem_ctrl.wrQLenPdf::55                       0                       # What write queue length does an incoming req see
system.mem_ctrl.wrQLenPdf::56                       0                       # What write queue length does an incoming req see
system.mem_ctrl.wrQLenPdf::57                       0                       # What write queue length does an incoming req see
system.mem_ctrl.wrQLenPdf::58                       0                       # What write queue length does an incoming req see
system.mem_ctrl.wrQLenPdf::59                       0                       # What write queue length does an incoming req see
system.mem_ctrl.wrQLenPdf::60                       0                       # What write queue length does an incoming req see
system.mem_ctrl.wrQLenPdf::61                       0                       # What write queue length does an incoming req see
system.mem_ctrl.wrQLenPdf::62                       0                       # What write queue length does an incoming req see
system.mem_ctrl.wrQLenPdf::63                       0                       # What write queue length does an incoming req see
system.mem_ctrl.bytesPerActivate::samples          159                       # Bytes accessed per row activation
system.mem_ctrl.bytesPerActivate::mean     281.358491                       # Bytes accessed per row activation
system.mem_ctrl.bytesPerActivate::gmean    173.395462                       # Bytes accessed per row activation
system.mem_ctrl.bytesPerActivate::stdev    297.324723                       # Bytes accessed per row activation
system.mem_ctrl.bytesPerActivate::0-127            58     36.48%     36.48% # Bytes accessed per row activation
system.mem_ctrl.bytesPerActivate::128-255           44     27.67%     64.15% # Bytes accessed per row activation
system.mem_ctrl.bytesPerActivate::256-383           13      8.18%     72.33% # Bytes accessed per row activation
system.mem_ctrl.bytesPerActivate::384-511           14      8.81%     81.13% # Bytes accessed per row activation
system.mem_ctrl.bytesPerActivate::512-639            7      4.40%     85.53% # Bytes accessed per row activation
system.mem_ctrl.bytesPerActivate::640-767            4      2.52%     88.05% # Bytes accessed per row activation
system.mem_ctrl.bytesPerActivate::768-895            3      1.89%     89.94% # Bytes accessed per row activation
system.mem_ctrl.bytesPerActivate::896-1023            4      2.52%     92.45% # Bytes accessed per row activation
system.mem_ctrl.bytesPerActivate::1024-1151           12      7.55%    100.00% # Bytes accessed per row activation
system.mem_ctrl.bytesPerActivate::total           159                       # Bytes accessed per row activation
system.mem_ctrl.masterReadBytes::.cpu.inst        31424                       # Per-master bytes read from memory
system.mem_ctrl.masterReadBytes::.cpu.data        16192                       # Per-master bytes read from memory
system.mem_ctrl.masterReadRate::.cpu.inst 4345867.069905893877                       # Per-master bytes read from memory rate (Bytes/sec)
system.mem_ctrl.masterReadRate::.cpu.data 2239316.433169431984                       # Per-master bytes read from memory rate (Bytes/sec)
system.mem_ctrl.masterReadAccesses::.cpu.inst          491                       # Per-master read serviced memory accesses
system.mem_ctrl.masterReadAccesses::.cpu.data          253                       # Per-master read serviced memory accesses
system.mem_ctrl.masterReadTotalLat::.cpu.inst     17443000                       # Per-master read total memory access latency
system.mem_ctrl.masterReadTotalLat::.cpu.data     13637250                       # Per-master read total memory access latency
system.mem_ctrl.masterReadAvgLat::.cpu.inst     35525.46                       # Per-master read average memory access latency
system.mem_ctrl.masterReadAvgLat::.cpu.data     53902.17                       # Per-master read average memory access latency
system.mem_ctrl.totQLat                      17130250                       # Total ticks spent queuing
system.mem_ctrl.totMemAccLat                 31080250                       # Total ticks spent from burst creation until serviced by the DRAM
system.mem_ctrl.totBusLat                     3720000                       # Total ticks spent in databus transfers
system.mem_ctrl.avgQLat                      23024.53                       # Average queueing delay per DRAM burst
system.mem_ctrl.avgBusLat                     5000.00                       # Average bus latency per DRAM burst
system.mem_ctrl.avgMemAccLat                 41774.53                       # Average memory access latency per DRAM burst
system.mem_ctrl.avgRdBW                          6.59                       # Average DRAM read bandwidth in MiByte/s
system.mem_ctrl.avgWrBW                          0.00                       # Average achieved write bandwidth in MiByte/s
system.mem_ctrl.avgRdBWSys                       6.59                       # Average system read bandwidth in MiByte/s
system.mem_ctrl.avgWrBWSys                       0.00                       # Average system write bandwidth in MiByte/s
system.mem_ctrl.peakBW                       12800.00                       # Theoretical peak bandwidth in MiByte/s
system.mem_ctrl.busUtil                          0.05                       # Data bus utilization in percentage
system.mem_ctrl.busUtilRead                      0.05                       # Data bus utilization in percentage for reads
system.mem_ctrl.busUtilWrite                     0.00                       # Data bus utilization in percentage for writes
system.mem_ctrl.avgRdQLen                        1.00                       # Average read queue length when enqueuing
system.mem_ctrl.avgWrQLen                        0.00                       # Average write queue length when enqueuing
system.mem_ctrl.readRowHits                       574                       # Number of row buffer hits during reads
system.mem_ctrl.writeRowHits                        0                       # Number of row buffer hits during writes
system.mem_ctrl.readRowHitRate                  77.15                       # Row buffer hit rate for reads
system.mem_ctrl.writeRowHitRate                   nan                       # Row buffer hit rate for writes
system.mem_ctrl.avgGap                     9718668.68                       # Average gap between requests
system.mem_ctrl.pageHitRate                     77.15                       # Row buffer hit rate, read and write combined
system.mem_ctrl_0.actEnergy                    485520                       # Energy for activate commands per rank (pJ)
system.mem_ctrl_0.preEnergy                    242880                       # Energy for precharge commands per rank (pJ)
system.mem_ctrl_0.readEnergy                  2334780                       # Energy for read commands per rank (pJ)
system.mem_ctrl_0.writeEnergy                       0                       # Energy for write commands per rank (pJ)
system.mem_ctrl_0.refreshEnergy          16595280.000000                       # Energy for refresh commands per rank (pJ)
system.mem_ctrl_0.actBackEnergy               7028100                       # Energy for active background per rank (pJ)
system.mem_ctrl_0.preBackEnergy               1442400                       # Energy for precharge background per rank (pJ)
system.mem_ctrl_0.actPowerDownEnergy         52462800                       # Energy for active power-down per rank (pJ)
system.mem_ctrl_0.prePowerDownEnergy         32267520                       # Energy for precharge power-down per rank (pJ)
system.mem_ctrl_0.selfRefreshEnergy        1689081840                       # Energy for self refresh per rank (pJ)
system.mem_ctrl_0.totalEnergy              1801941120                       # Total energy per rank (pJ)
system.mem_ctrl_0.averagePower             249.204321                       # Core power per rank (mW)
system.mem_ctrl_0.totalIdleTime            7211568250                       # Total Idle time Per DRAM Rank
system.mem_ctrl_0.memoryStateTime::IDLE       3150500                       # Time in different power states
system.mem_ctrl_0.memoryStateTime::REF        7020000                       # Time in different power states
system.mem_ctrl_0.memoryStateTime::SREF    7012529250                       # Time in different power states
system.mem_ctrl_0.memoryStateTime::PRE_PDN     84029750                       # Time in different power states
system.mem_ctrl_0.memoryStateTime::ACT        8994000                       # Time in different power states
system.mem_ctrl_0.memoryStateTime::ACT_PDN    115054500                       # Time in different power states
system.mem_ctrl_1.actEnergy                    728280                       # Energy for activate commands per rank (pJ)
system.mem_ctrl_1.preEnergy                    360525                       # Energy for precharge commands per rank (pJ)
system.mem_ctrl_1.readEnergy                  2977380                       # Energy for read commands per rank (pJ)
system.mem_ctrl_1.writeEnergy                       0                       # Energy for write commands per rank (pJ)
system.mem_ctrl_1.refreshEnergy          4917120.000000                       # Energy for refresh commands per rank (pJ)
system.mem_ctrl_1.actBackEnergy               5987280                       # Energy for active background per rank (pJ)
system.mem_ctrl_1.preBackEnergy                242400                       # Energy for precharge background per rank (pJ)
system.mem_ctrl_1.actPowerDownEnergy         19561830                       # Energy for active power-down per rank (pJ)
system.mem_ctrl_1.prePowerDownEnergy          4710240                       # Energy for precharge power-down per rank (pJ)
system.mem_ctrl_1.selfRefreshEnergy        1719396840                       # Energy for self refresh per rank (pJ)
system.mem_ctrl_1.totalEnergy              1758881895                       # Total energy per rank (pJ)
system.mem_ctrl_1.averagePower             243.249329                       # Core power per rank (mW)
system.mem_ctrl_1.totalIdleTime            7216865750                       # Total Idle time Per DRAM Rank
system.mem_ctrl_1.memoryStateTime::IDLE        422000                       # Time in different power states
system.mem_ctrl_1.memoryStateTime::REF        2080000                       # Time in different power states
system.mem_ctrl_1.memoryStateTime::SREF    7161852000                       # Time in different power states
system.mem_ctrl_1.memoryStateTime::PRE_PDN     12265500                       # Time in different power states
system.mem_ctrl_1.memoryStateTime::ACT       11259500                       # Time in different power states
system.mem_ctrl_1.memoryStateTime::ACT_PDN     42899000                       # Time in different power states
system.pwrStateResidencyTicks::UNDEFINED   7230778000                       # Cumulative time (in ticks) in various power states
system.cpu.branchPred.lookups                 1543853                       # Number of BP lookups
system.cpu.branchPred.condPredicted           1543853                       # Number of conditional branches predicted
system.cpu.branchPred.condIncorrect             10715                       # Number of conditional branches incorrect
system.cpu.branchPred.BTBLookups              1127963                       # Number of BTB lookups
system.cpu.branchPred.BTBHits                       0                       # Number of BTB hits
system.cpu.branchPred.BTBCorrect                    0                       # Number of correct BTB predictions (this stat may not work properly.
system.cpu.branchPred.BTBHitPct              0.000000                       # BTB Hit Percentage
system.cpu.branchPred.usedRAS                    1976                       # Number of times the RAS was used to get a target.
system.cpu.branchPred.RASInCorrect                326                       # Number of incorrect RAS predictions.
system.cpu.branchPred.indirectLookups         1127963                       # Number of indirect predictor lookups.
system.cpu.branchPred.indirectHits            1020029                       # Number of indirect target hits.
system.cpu.branchPred.indirectMisses           107934                       # Number of indirect misses.
system.cpu.branchPredindirectMispredicted         1941                       # Number of mispredicted indirect branches.
system.cpu.dtb.walker.pwrStateResidencyTicks::UNDEFINED   7230778000                       # Cumulative time (in ticks) in various power states
system.cpu.dtb.rdAccesses                     2560397                       # TLB accesses on read requests
system.cpu.dtb.wrAccesses                      531983                       # TLB accesses on write requests
system.cpu.dtb.rdMisses                            41                       # TLB misses on read requests
system.cpu.dtb.wrMisses                            33                       # TLB misses on write requests
system.cpu.apic_clk_domain.clock                 8000                       # Clock period in ticks
system.cpu.interrupts.pwrStateResidencyTicks::UNDEFINED   7230778000                       # Cumulative time (in ticks) in various power states
system.cpu.itb.walker.pwrStateResidencyTicks::UNDEFINED   7230778000                       # Cumulative time (in ticks) in various power states
system.cpu.itb.rdAccesses                           0                       # TLB accesses on read requests
system.cpu.itb.wrAccesses                     2624594                       # TLB accesses on write requests
system.cpu.itb.rdMisses                             0                       # TLB misses on read requests
system.cpu.itb.wrMisses                           141                       # TLB misses on write requests
system.cpu.workload.numSyscalls                    11                       # Number of system calls
system.cpu.pwrStateResidencyTicks::ON      7230778000                       # Cumulative time (in ticks) in various power states
system.cpu.numCycles                         14461557                       # number of cpu cycles simulated
system.cpu.numWorkItemsStarted                      0                       # number of work items this cpu started
system.cpu.numWorkItemsCompleted                    0                       # number of work items this cpu completed
system.cpu.fetch.icacheStallCycles              44600                       # Number of cycles fetch is stalled on an Icache miss
system.cpu.fetch.Insts                        5200116                       # Number of instructions fetch has processed
system.cpu.fetch.Branches                     1543853                       # Number of branches that fetch encountered
system.cpu.fetch.predictedBranches            1022005                       # Number of branches that fetch has predicted taken
system.cpu.fetch.Cycles                      14370658                       # Number of cycles fetch has run and was not squashing or blocked
system.cpu.fetch.SquashCycles                   21660                       # Number of cycles fetch has spent squashing
system.cpu.fetch.MiscStallCycles                   75                       # Number of cycles fetch has spent waiting on interrupts, or bad addresses, or out of MSHRs
system.cpu.fetch.PendingTrapStallCycles           478                       # Number of stall cycles due to pending traps
system.cpu.fetch.PendingQuiesceStallCycles            5                       # Number of stall cycles due to pending quiesce instructions
system.cpu.fetch.CacheLines                   2624499                       # Number of cache lines fetched
system.cpu.fetch.IcacheSquashes                   163                       # Number of outstanding Icache misses that were squashed
system.cpu.fetch.rateDist::samples           14426646                       # Number of instructions fetched each cycle (Total)
system.cpu.fetch.rateDist::mean              1.702575                       # Number of instructions fetched each cycle (Total)
system.cpu.fetch.rateDist::stdev             0.602483                       # Number of instructions fetched each cycle (Total)
system.cpu.fetch.rateDist::underflows               0      0.00%      0.00% # Number of instructions fetched each cycle (Total)
system.cpu.fetch.rateDist::0                  1111013      7.70%      7.70% # Number of instructions fetched each cycle (Total)
system.cpu.fetch.rateDist::1                  2068821     14.34%     22.04% # Number of instructions fetched each cycle (Total)
system.cpu.fetch.rateDist::2                 11246812     77.96%    100.00% # Number of instructions fetched each cycle (Total)
system.cpu.fetch.rateDist::overflows                0      0.00%    100.00% # Number of instructions fetched each cycle (Total)
system.cpu.fetch.rateDist::min_value                0                       # Number of instructions fetched each cycle (Total)
system.cpu.fetch.rateDist::max_value                2                       # Number of instructions fetched each cycle (Total)
system.cpu.fetch.rateDist::total             14426646                       # Number of instructions fetched each cycle (Total)
system.cpu.fetch.branchRate                  0.106756                       # Number of branch fetches per cycle
system.cpu.fetch.rate                        0.359582                       # Number of inst fetches per cycle
system.cpu.decode.IdleCycles                  1085757                       # Number of cycles decode is idle
system.cpu.decode.BlockedCycles                 31805                       # Number of cycles decode is blocked
system.cpu.decode.RunCycles                  13285209                       # Number of cycles decode is running
system.cpu.decode.UnblockCycles                 13045                       # Number of cycles decode is unblocking
system.cpu.decode.SquashCycles                  10830                       # Number of cycles decode is squashing
system.cpu.decode.DecodedInsts               24542830                       # Number of instructions handled by decode
system.cpu.rename.SquashCycles                  10830                       # Number of cycles rename is squashing
system.cpu.rename.IdleCycles                  1095997                       # Number of cycles rename is idle
system.cpu.rename.BlockCycles                   10019                       # Number of cycles rename is blocking
system.cpu.rename.serializeStallCycles            818                       # count of cycles rename stalled for serializing inst
system.cpu.rename.RunCycles                  13287900                       # Number of cycles rename is running
system.cpu.rename.UnblockCycles                 21082                       # Number of cycles rename is unblocking
system.cpu.rename.RenamedInsts               24523488                       # Number of instructions processed by rename
system.cpu.rename.ROBFullEvents                     6                       # Number of times rename has blocked due to ROB full
system.cpu.rename.IQFullEvents                     26                       # Number of times rename has blocked due to IQ full
system.cpu.rename.SQFullEvents                  20765                       # Number of times rename has blocked due to SQ full
system.cpu.rename.FullRegisterEvents               33                       # Number of times there has been no free registers
system.cpu.rename.RenamedOperands            35659492                       # Number of destination operands rename has renamed
system.cpu.rename.RenameLookups              90490821                       # Number of register rename lookups that rename has made
system.cpu.rename.int_rename_lookups         54413688                       # Number of integer rename lookups
system.cpu.rename.fp_rename_lookups             18120                       # Number of floating rename lookups
system.cpu.rename.CommittedMaps              35346661                       # Number of HB maps that are committed
system.cpu.rename.UndoneMaps                   312831                       # Number of HB maps that are undone due to squashing
system.cpu.rename.serializingInsts                 18                       # count of serializing insts renamed
system.cpu.rename.tempSerializingInsts             14                       # count of temporary serializing insts renamed
system.cpu.rename.skidInsts                       748                       # count of insts added to the skid buffer
system.cpu.memDep0.insertedLoads              2579297                       # Number of loads inserted to the mem dependence unit.
system.cpu.memDep0.insertedStores              537956                       # Number of stores inserted to the mem dependence unit.
system.cpu.memDep0.conflictingLoads           1779418                       # Number of conflicting loads.
system.cpu.memDep0.conflictingStores             8117                       # Number of conflicting stores.
system.cpu.iq.iqInstsAdded                   24504197                       # Number of instructions added to the IQ (excludes non-spec)
system.cpu.iq.iqNonSpecInstsAdded                  85                       # Number of non-speculative instructions added to the IQ
system.cpu.iq.iqInstsIssued                  24387297                       # Number of instructions issued
system.cpu.iq.iqSquashedInstsIssued              3641                       # Number of squashed instructions issued
system.cpu.iq.iqSquashedInstsExamined          202782                       # Number of squashed instructions iterated over during squash; mainly for profiling
system.cpu.iq.iqSquashedOperandsExamined       467904                       # Number of squashed operands that are examined and possibly removed from graph
system.cpu.iq.iqSquashedNonSpecRemoved             74                       # Number of squashed non-spec instructions that were removed
system.cpu.iq.issued_per_cycle::samples      14426646                       # Number of insts issued each cycle
system.cpu.iq.issued_per_cycle::mean         1.690434                       # Number of insts issued each cycle
system.cpu.iq.issued_per_cycle::stdev        0.518903                       # Number of insts issued each cycle
system.cpu.iq.issued_per_cycle::underflows            0      0.00%      0.00% # Number of insts issued each cycle
system.cpu.iq.issued_per_cycle::0              400521      2.78%      2.78% # Number of insts issued each cycle
system.cpu.iq.issued_per_cycle::1             3664953     25.40%     28.18% # Number of insts issued each cycle
system.cpu.iq.issued_per_cycle::2            10361172     71.82%    100.00% # Number of insts issued each cycle
system.cpu.iq.issued_per_cycle::overflows            0      0.00%    100.00% # Number of insts issued each cycle
system.cpu.iq.issued_per_cycle::min_value            0                       # Number of insts issued each cycle
system.cpu.iq.issued_per_cycle::max_value            2                       # Number of insts issued each cycle
system.cpu.iq.issued_per_cycle::total        14426646                       # Number of insts issued each cycle
system.cpu.iq.fu_full::No_OpClass                   0      0.00%      0.00% # attempts to use FU when none available
system.cpu.iq.fu_full::IntAlu                       0      0.00%      0.00% # attempts to use FU when none available
system.cpu.iq.fu_full::IntMult                      0      0.00%      0.00% # attempts to use FU when none available
system.cpu.iq.fu_full::IntDiv                       0      0.00%      0.00% # attempts to use FU when none available
system.cpu.iq.fu_full::FloatAdd                     0      0.00%      0.00% # attempts to use FU when none available
system.cpu.iq.fu_full::FloatCmp                     0      0.00%      0.00% # attempts to use FU when none available
system.cpu.iq.fu_full::FloatCvt                     0      0.00%      0.00% # attempts to use FU when none available
system.cpu.iq.fu_full::FloatMult                    0      0.00%      0.00% # attempts to use FU when none available
system.cpu.iq.fu_full::FloatMultAcc                 0      0.00%      0.00% # attempts to use FU when none available
system.cpu.iq.fu_full::FloatDiv                     0      0.00%      0.00% # attempts to use FU when none available
system.cpu.iq.fu_full::FloatMisc                    0      0.00%      0.00% # attempts to use FU when none available
system.cpu.iq.fu_full::FloatSqrt                    0      0.00%      0.00% # attempts to use FU when none available
system.cpu.iq.fu_full::SimdAdd                    240      0.02%      0.02% # attempts to use FU when none available
system.cpu.iq.fu_full::SimdAddAcc                   0      0.00%      0.02% # attempts to use FU when none available
system.cpu.iq.fu_full::SimdAlu                    391      0.04%      0.06% # attempts to use FU when none available
system.cpu.iq.fu_full::SimdCmp                      0      0.00%      0.06% # attempts to use FU when none available
system.cpu.iq.fu_full::SimdCvt                    351      0.03%      0.10% # attempts to use FU when none available
system.cpu.iq.fu_full::SimdMisc                   777      0.08%      0.17% # attempts to use FU when none available
system.cpu.iq.fu_full::SimdMult                     0      0.00%      0.17% # attempts to use FU when none available
system.cpu.iq.fu_full::SimdMultAcc                  0      0.00%      0.17% # attempts to use FU when none available
system.cpu.iq.fu_full::SimdShift                    0      0.00%      0.17% # attempts to use FU when none available
system.cpu.iq.fu_full::SimdShiftAcc                 0      0.00%      0.17% # attempts to use FU when none available
system.cpu.iq.fu_full::SimdSqrt                     0      0.00%      0.17% # attempts to use FU when none available
system.cpu.iq.fu_full::SimdFloatAdd                 0      0.00%      0.17% # attempts to use FU when none available
system.cpu.iq.fu_full::SimdFloatAlu                 0      0.00%      0.17% # attempts to use FU when none available
system.cpu.iq.fu_full::SimdFloatCmp                 0      0.00%      0.17% # attempts to use FU when none available
system.cpu.iq.fu_full::SimdFloatCvt                 0      0.00%      0.17% # attempts to use FU when none available
system.cpu.iq.fu_full::SimdFloatDiv                 0      0.00%      0.17% # attempts to use FU when none available
system.cpu.iq.fu_full::SimdFloatMisc                0      0.00%      0.17% # attempts to use FU when none available
system.cpu.iq.fu_full::SimdFloatMult                0      0.00%      0.17% # attempts to use FU when none available
system.cpu.iq.fu_full::SimdFloatMultAcc             0      0.00%      0.17% # attempts to use FU when none available
system.cpu.iq.fu_full::SimdFloatSqrt                0      0.00%      0.17% # attempts to use FU when none available
system.cpu.iq.fu_full::SimdAes                      0      0.00%      0.17% # attempts to use FU when none available
system.cpu.iq.fu_full::SimdAesMix                   0      0.00%      0.17% # attempts to use FU when none available
system.cpu.iq.fu_full::SimdSha1Hash                 0      0.00%      0.17% # attempts to use FU when none available
system.cpu.iq.fu_full::SimdSha1Hash2                0      0.00%      0.17% # attempts to use FU when none available
system.cpu.iq.fu_full::SimdSha256Hash               0      0.00%      0.17% # attempts to use FU when none available
system.cpu.iq.fu_full::SimdSha256Hash2              0      0.00%      0.17% # attempts to use FU when none available
system.cpu.iq.fu_full::SimdShaSigma2                0      0.00%      0.17% # attempts to use FU when none available
system.cpu.iq.fu_full::SimdShaSigma3                0      0.00%      0.17% # attempts to use FU when none available
system.cpu.iq.fu_full::MemRead                1012561     99.62%     99.80% # attempts to use FU when none available
system.cpu.iq.fu_full::MemWrite                  2075      0.20%    100.00% # attempts to use FU when none available
system.cpu.iq.fu_full::FloatMemRead                 0      0.00%    100.00% # attempts to use FU when none available
system.cpu.iq.fu_full::FloatMemWrite                0      0.00%    100.00% # attempts to use FU when none available
system.cpu.iq.fu_full::IprAccess                    0      0.00%    100.00% # attempts to use FU when none available
system.cpu.iq.fu_full::InstPrefetch                 0      0.00%    100.00% # attempts to use FU when none available
system.cpu.iq.FU_type_0::No_OpClass            502192      2.06%      2.06% # Type of FU issued
system.cpu.iq.FU_type_0::IntAlu              17274803     70.84%     72.89% # Type of FU issued
system.cpu.iq.FU_type_0::IntMult                  479      0.00%     72.90% # Type of FU issued
system.cpu.iq.FU_type_0::IntDiv               3506201     14.38%     87.27% # Type of FU issued
system.cpu.iq.FU_type_0::FloatAdd                 346      0.00%     87.28% # Type of FU issued
system.cpu.iq.FU_type_0::FloatCmp                   0      0.00%     87.28% # Type of FU issued
system.cpu.iq.FU_type_0::FloatCvt                   0      0.00%     87.28% # Type of FU issued
system.cpu.iq.FU_type_0::FloatMult                  0      0.00%     87.28% # Type of FU issued
system.cpu.iq.FU_type_0::FloatMultAcc               0      0.00%     87.28% # Type of FU issued
system.cpu.iq.FU_type_0::FloatDiv                   0      0.00%     87.28% # Type of FU issued
system.cpu.iq.FU_type_0::FloatMisc                  0      0.00%     87.28% # Type of FU issued
system.cpu.iq.FU_type_0::FloatSqrt                  0      0.00%     87.28% # Type of FU issued
system.cpu.iq.FU_type_0::SimdAdd                  374      0.00%     87.28% # Type of FU issued
system.cpu.iq.FU_type_0::SimdAddAcc                 0      0.00%     87.28% # Type of FU issued
system.cpu.iq.FU_type_0::SimdAlu                 1413      0.01%     87.28% # Type of FU issued
system.cpu.iq.FU_type_0::SimdCmp                    0      0.00%     87.28% # Type of FU issued
system.cpu.iq.FU_type_0::SimdCvt                 1452      0.01%     87.29% # Type of FU issued
system.cpu.iq.FU_type_0::SimdMisc                3239      0.01%     87.30% # Type of FU issued
system.cpu.iq.FU_type_0::SimdMult                   0      0.00%     87.30% # Type of FU issued
system.cpu.iq.FU_type_0::SimdMultAcc                0      0.00%     87.30% # Type of FU issued
system.cpu.iq.FU_type_0::SimdShift                186      0.00%     87.30% # Type of FU issued
system.cpu.iq.FU_type_0::SimdShiftAcc               0      0.00%     87.30% # Type of FU issued
system.cpu.iq.FU_type_0::SimdSqrt                   0      0.00%     87.30% # Type of FU issued
system.cpu.iq.FU_type_0::SimdFloatAdd               0      0.00%     87.30% # Type of FU issued
system.cpu.iq.FU_type_0::SimdFloatAlu               0      0.00%     87.30% # Type of FU issued
system.cpu.iq.FU_type_0::SimdFloatCmp               0      0.00%     87.30% # Type of FU issued
system.cpu.iq.FU_type_0::SimdFloatCvt               0      0.00%     87.30% # Type of FU issued
system.cpu.iq.FU_type_0::SimdFloatDiv               0      0.00%     87.30% # Type of FU issued
system.cpu.iq.FU_type_0::SimdFloatMisc              0      0.00%     87.30% # Type of FU issued
system.cpu.iq.FU_type_0::SimdFloatMult              0      0.00%     87.30% # Type of FU issued
system.cpu.iq.FU_type_0::SimdFloatMultAcc            0      0.00%     87.30% # Type of FU issued
system.cpu.iq.FU_type_0::SimdFloatSqrt              0      0.00%     87.30% # Type of FU issued
system.cpu.iq.FU_type_0::SimdAes                    0      0.00%     87.30% # Type of FU issued
system.cpu.iq.FU_type_0::SimdAesMix                 0      0.00%     87.30% # Type of FU issued
system.cpu.iq.FU_type_0::SimdSha1Hash               0      0.00%     87.30% # Type of FU issued
system.cpu.iq.FU_type_0::SimdSha1Hash2              0      0.00%     87.30% # Type of FU issued
system.cpu.iq.FU_type_0::SimdSha256Hash             0      0.00%     87.30% # Type of FU issued
system.cpu.iq.FU_type_0::SimdSha256Hash2            0      0.00%     87.30% # Type of FU issued
system.cpu.iq.FU_type_0::SimdShaSigma2              0      0.00%     87.30% # Type of FU issued
system.cpu.iq.FU_type_0::SimdShaSigma3              0      0.00%     87.30% # Type of FU issued
system.cpu.iq.FU_type_0::MemRead              2560099     10.50%     97.80% # Type of FU issued
system.cpu.iq.FU_type_0::MemWrite              534466      2.19%     99.99% # Type of FU issued
system.cpu.iq.FU_type_0::FloatMemRead            1066      0.00%    100.00% # Type of FU issued
system.cpu.iq.FU_type_0::FloatMemWrite            981      0.00%    100.00% # Type of FU issued
system.cpu.iq.FU_type_0::IprAccess                  0      0.00%    100.00% # Type of FU issued
system.cpu.iq.FU_type_0::InstPrefetch               0      0.00%    100.00% # Type of FU issued
system.cpu.iq.FU_type_0::total               24387297                       # Type of FU issued
system.cpu.iq.rate                           1.686353                       # Inst issue rate
system.cpu.iq.fu_busy_cnt                     1016395                       # FU busy when requested
system.cpu.iq.fu_busy_rate                   0.041677                       # FU busy rate (busy events/executed inst)
system.cpu.iq.int_inst_queue_reads           64198358                       # Number of integer instruction queue reads
system.cpu.iq.int_inst_queue_writes          24696282                       # Number of integer instruction queue writes
system.cpu.iq.int_inst_queue_wakeup_accesses     24359072                       # Number of integer instruction queue wakeup accesses
system.cpu.iq.fp_inst_queue_reads               22918                       # Number of floating instruction queue reads
system.cpu.iq.fp_inst_queue_writes              10817                       # Number of floating instruction queue writes
system.cpu.iq.fp_inst_queue_wakeup_accesses        10463                       # Number of floating instruction queue wakeup accesses
system.cpu.iq.vec_inst_queue_reads                  0                       # Number of vector instruction queue reads
system.cpu.iq.vec_inst_queue_writes                 0                       # Number of vector instruction queue writes
system.cpu.iq.vec_inst_queue_wakeup_accesses            0                       # Number of vector instruction queue wakeup accesses
system.cpu.iq.int_alu_accesses               24889162                       # Number of integer alu accesses
system.cpu.iq.fp_alu_accesses                   12338                       # Number of floating point alu accesses
system.cpu.iq.vec_alu_accesses                      0                       # Number of vector alu accesses
system.cpu.iew.lsq.thread0.forwLoads          1005855                       # Number of loads that had data forwarded from stores
system.cpu.iew.lsq.thread0.invAddrLoads             0                       # Number of loads ignored due to an invalid address
system.cpu.iew.lsq.thread0.squashedLoads        37825                       # Number of loads squashed
system.cpu.iew.lsq.thread0.ignoredResponses         1741                       # Number of memory responses ignored because the instruction is squashed
system.cpu.iew.lsq.thread0.memOrderViolation           35                       # Number of memory ordering violations
system.cpu.iew.lsq.thread0.squashedStores         9205                       # Number of stores squashed
system.cpu.iew.lsq.thread0.invAddrSwpfs             0                       # Number of software prefetches ignored due to an invalid address
system.cpu.iew.lsq.thread0.blockedLoads             0                       # Number of blocked loads due to partial load-store forwarding
system.cpu.iew.lsq.thread0.rescheduledLoads            0                       # Number of loads that were rescheduled
system.cpu.iew.lsq.thread0.cacheBlocked             6                       # Number of times an access to memory failed due to the cache being blocked
system.cpu.iew.iewIdleCycles                        0                       # Number of cycles IEW is idle
system.cpu.iew.iewSquashCycles                  10830                       # Number of cycles IEW is squashing
system.cpu.iew.iewBlockCycles                    8163                       # Number of cycles IEW is blocking
system.cpu.iew.iewUnblockCycles                   693                       # Number of cycles IEW is unblocking
system.cpu.iew.iewDispatchedInsts            24504282                       # Number of instructions dispatched to IQ
system.cpu.iew.iewDispSquashedInsts                 0                       # Number of squashed instructions skipped by dispatch
system.cpu.iew.iewDispLoadInsts               2579297                       # Number of dispatched load instructions
system.cpu.iew.iewDispStoreInsts               537956                       # Number of dispatched store instructions
system.cpu.iew.iewDispNonSpecInsts                 37                       # Number of dispatched non-speculative instructions
system.cpu.iew.iewIQFullEvents                     11                       # Number of times the IQ has become full, causing a stall
system.cpu.iew.iewLSQFullEvents                   643                       # Number of times the LSQ has become full, causing a stall
system.cpu.iew.memOrderViolationEvents             35                       # Number of memory order violations
system.cpu.iew.predictedTakenIncorrect           7596                       # Number of branches that were predicted taken incorrectly
system.cpu.iew.predictedNotTakenIncorrect         3482                       # Number of branches that were predicted not taken incorrectly
system.cpu.iew.branchMispredicts                11078                       # Number of branch mispredicts detected at execute
system.cpu.iew.iewExecutedInsts              24375104                       # Number of executed instructions
system.cpu.iew.iewExecLoadInsts               2560392                       # Number of load instructions executed
system.cpu.iew.iewExecSquashedInsts             12193                       # Number of squashed instructions skipped in execute
system.cpu.iew.exec_swp                             0                       # number of swp insts executed
system.cpu.iew.exec_nop                             0                       # number of nop insts executed
system.cpu.iew.exec_refs                      3092363                       # number of memory reference insts executed
system.cpu.iew.exec_branches                  1532746                       # Number of branches executed
system.cpu.iew.exec_stores                     531971                       # Number of stores executed
system.cpu.iew.exec_rate                     1.685510                       # Inst execution rate
system.cpu.iew.wb_sent                       24372010                       # cumulative count of insts sent to commit
system.cpu.iew.wb_count                      24369535                       # cumulative count of insts written-back
system.cpu.iew.wb_producers                  21762983                       # num instructions producing a value
system.cpu.iew.wb_consumers                  58314944                       # num instructions consuming a value
system.cpu.iew.wb_rate                       1.685125                       # insts written-back per cycle
system.cpu.iew.wb_fanout                     0.373197                       # average fanout of values written-back
system.cpu.commit.commitSquashedInsts          183835                       # The number of squashed insts skipped by commit
system.cpu.commit.commitNonSpecStalls              11                       # The number of times commit has been forced to stall to communicate backwards
system.cpu.commit.branchMispredicts             10794                       # The number of times a branch was mispredicted
system.cpu.commit.committed_per_cycle::samples     14408720                       # Number of insts commited each cycle
system.cpu.commit.committed_per_cycle::mean     1.686583                       # Number of insts commited each cycle
system.cpu.commit.committed_per_cycle::stdev     0.556935                       # Number of insts commited each cycle
system.cpu.commit.committed_per_cycle::underflows            0      0.00%      0.00% # Number of insts commited each cycle
system.cpu.commit.committed_per_cycle::0       684337      4.75%      4.75% # Number of insts commited each cycle
system.cpu.commit.committed_per_cycle::1      3147267     21.84%     26.59% # Number of insts commited each cycle
system.cpu.commit.committed_per_cycle::2     10577116     73.41%    100.00% # Number of insts commited each cycle
system.cpu.commit.committed_per_cycle::overflows            0      0.00%    100.00% # Number of insts commited each cycle
system.cpu.commit.committed_per_cycle::min_value            0                       # Number of insts commited each cycle
system.cpu.commit.committed_per_cycle::max_value            2                       # Number of insts commited each cycle
system.cpu.commit.committed_per_cycle::total     14408720                       # Number of insts commited each cycle
system.cpu.commit.committedInsts              5132577                       # Number of instructions committed
system.cpu.commit.committedOps               24301499                       # Number of ops (including micro ops) committed
system.cpu.commit.swp_count                         0                       # Number of s/w prefetches committed
system.cpu.commit.refs                        3070223                       # Number of memory references committed
system.cpu.commit.loads                       2541472                       # Number of loads committed
system.cpu.commit.membars                           0                       # Number of memory barriers committed
system.cpu.commit.branches                    1530142                       # Number of branches committed
system.cpu.commit.vec_insts                         0                       # Number of committed Vector instructions.
system.cpu.commit.fp_insts                      10343                       # Number of committed floating point instructions.
system.cpu.commit.int_insts                  23791918                       # Number of committed integer instructions.
system.cpu.commit.function_calls                 1819                       # Number of function calls committed.
system.cpu.commit.op_class_0::No_OpClass       501944      2.07%      2.07% # Class of committed instruction
system.cpu.commit.op_class_0::IntAlu         17216319     70.84%     72.91% # Class of committed instruction
system.cpu.commit.op_class_0::IntMult             479      0.00%     72.91% # Class of committed instruction
system.cpu.commit.op_class_0::IntDiv          3505526     14.43%     87.34% # Class of committed instruction
system.cpu.commit.op_class_0::FloatAdd            346      0.00%     87.34% # Class of committed instruction
system.cpu.commit.op_class_0::FloatCmp              0      0.00%     87.34% # Class of committed instruction
system.cpu.commit.op_class_0::FloatCvt              0      0.00%     87.34% # Class of committed instruction
system.cpu.commit.op_class_0::FloatMult             0      0.00%     87.34% # Class of committed instruction
system.cpu.commit.op_class_0::FloatMultAcc            0      0.00%     87.34% # Class of committed instruction
system.cpu.commit.op_class_0::FloatDiv              0      0.00%     87.34% # Class of committed instruction
system.cpu.commit.op_class_0::FloatMisc             0      0.00%     87.34% # Class of committed instruction
system.cpu.commit.op_class_0::FloatSqrt             0      0.00%     87.34% # Class of committed instruction
system.cpu.commit.op_class_0::SimdAdd             374      0.00%     87.34% # Class of committed instruction
system.cpu.commit.op_class_0::SimdAddAcc            0      0.00%     87.34% # Class of committed instruction
system.cpu.commit.op_class_0::SimdAlu            1412      0.01%     87.35% # Class of committed instruction
system.cpu.commit.op_class_0::SimdCmp               0      0.00%     87.35% # Class of committed instruction
system.cpu.commit.op_class_0::SimdCvt            1452      0.01%     87.35% # Class of committed instruction
system.cpu.commit.op_class_0::SimdMisc           3238      0.01%     87.37% # Class of committed instruction
system.cpu.commit.op_class_0::SimdMult              0      0.00%     87.37% # Class of committed instruction
system.cpu.commit.op_class_0::SimdMultAcc            0      0.00%     87.37% # Class of committed instruction
system.cpu.commit.op_class_0::SimdShift           186      0.00%     87.37% # Class of committed instruction
system.cpu.commit.op_class_0::SimdShiftAcc            0      0.00%     87.37% # Class of committed instruction
system.cpu.commit.op_class_0::SimdSqrt              0      0.00%     87.37% # Class of committed instruction
system.cpu.commit.op_class_0::SimdFloatAdd            0      0.00%     87.37% # Class of committed instruction
system.cpu.commit.op_class_0::SimdFloatAlu            0      0.00%     87.37% # Class of committed instruction
system.cpu.commit.op_class_0::SimdFloatCmp            0      0.00%     87.37% # Class of committed instruction
system.cpu.commit.op_class_0::SimdFloatCvt            0      0.00%     87.37% # Class of committed instruction
system.cpu.commit.op_class_0::SimdFloatDiv            0      0.00%     87.37% # Class of committed instruction
system.cpu.commit.op_class_0::SimdFloatMisc            0      0.00%     87.37% # Class of committed instruction
system.cpu.commit.op_class_0::SimdFloatMult            0      0.00%     87.37% # Class of committed instruction
system.cpu.commit.op_class_0::SimdFloatMultAcc            0      0.00%     87.37% # Class of committed instruction
system.cpu.commit.op_class_0::SimdFloatSqrt            0      0.00%     87.37% # Class of committed instruction
system.cpu.commit.op_class_0::SimdAes               0      0.00%     87.37% # Class of committed instruction
system.cpu.commit.op_class_0::SimdAesMix            0      0.00%     87.37% # Class of committed instruction
system.cpu.commit.op_class_0::SimdSha1Hash            0      0.00%     87.37% # Class of committed instruction
system.cpu.commit.op_class_0::SimdSha1Hash2            0      0.00%     87.37% # Class of committed instruction
system.cpu.commit.op_class_0::SimdSha256Hash            0      0.00%     87.37% # Class of committed instruction
system.cpu.commit.op_class_0::SimdSha256Hash2            0      0.00%     87.37% # Class of committed instruction
system.cpu.commit.op_class_0::SimdShaSigma2            0      0.00%     87.37% # Class of committed instruction
system.cpu.commit.op_class_0::SimdShaSigma3            0      0.00%     87.37% # Class of committed instruction
system.cpu.commit.op_class_0::MemRead         2540408     10.45%     97.82% # Class of committed instruction
system.cpu.commit.op_class_0::MemWrite         528000      2.17%     99.99% # Class of committed instruction
system.cpu.commit.op_class_0::FloatMemRead         1064      0.00%    100.00% # Class of committed instruction
system.cpu.commit.op_class_0::FloatMemWrite          751      0.00%    100.00% # Class of committed instruction
system.cpu.commit.op_class_0::IprAccess             0      0.00%    100.00% # Class of committed instruction
system.cpu.commit.op_class_0::InstPrefetch            0      0.00%    100.00% # Class of committed instruction
system.cpu.commit.op_class_0::total          24301499                       # Class of committed instruction
system.cpu.commit.bw_lim_events              10577116                       # number cycles where commit BW limit reached
system.cpu.rob.rob_reads                     28316938                       # The number of ROB reads
system.cpu.rob.rob_writes                    48988872                       # The number of ROB writes
system.cpu.timesIdled                             391                       # Number of times that the entire CPU went into an idle state and unscheduled itself
system.cpu.idleCycles                           34911                       # Total number of cycles that the CPU has spent unscheduled due to idling
system.cpu.committedInsts                     5132577                       # Number of Instructions Simulated
system.cpu.committedOps                      24301499                       # Number of Ops (including micro ops) Simulated
system.cpu.cpi                               2.817602                       # CPI: Cycles Per Instruction
system.cpu.cpi_total                         2.817602                       # CPI: Total CPI of All Threads
system.cpu.ipc                               0.354912                       # IPC: Instructions Per Cycle
system.cpu.ipc_total                         0.354912                       # IPC: Total IPC of All Threads
system.cpu.int_regfile_reads                 54068904                       # number of integer regfile reads
system.cpu.int_regfile_writes                29310075                       # number of integer regfile writes
system.cpu.fp_regfile_reads                     18001                       # number of floating regfile reads
system.cpu.fp_regfile_writes                     8874                       # number of floating regfile writes
system.cpu.cc_regfile_reads                  30693575                       # number of cc regfile reads
system.cpu.cc_regfile_writes                  6117085                       # number of cc regfile writes
system.cpu.misc_regfile_reads                 5161670                       # number of misc regfile reads
system.cpu.dcache.tags.pwrStateResidencyTicks::UNDEFINED   7230778000                       # Cumulative time (in ticks) in various power states
system.cpu.dcache.tags.tagsinuse           236.028860                       # Cycle average of tags in use
system.cpu.dcache.tags.total_refs             2083181                       # Total number of references to valid blocks.
system.cpu.dcache.tags.sampled_refs               253                       # Sample count of references to valid blocks.
system.cpu.dcache.tags.avg_refs           8233.916996                       # Average number of references to valid blocks.
system.cpu.dcache.tags.warmup_cycle            167500                       # Cycle when the warmup percentage was hit.
system.cpu.dcache.tags.occ_blocks::.cpu.data   236.028860                       # Average occupied blocks per requestor
system.cpu.dcache.tags.occ_percent::.cpu.data     0.460994                       # Average percentage of cache occupancy
system.cpu.dcache.tags.occ_percent::total     0.460994                       # Average percentage of cache occupancy
system.cpu.dcache.tags.occ_task_id_blocks::1024          253                       # Occupied blocks per task id
system.cpu.dcache.tags.age_task_id_blocks_1024::0           13                       # Occupied blocks per task id
system.cpu.dcache.tags.age_task_id_blocks_1024::2            1                       # Occupied blocks per task id
system.cpu.dcache.tags.age_task_id_blocks_1024::3          239                       # Occupied blocks per task id
system.cpu.dcache.tags.occ_task_id_percent::1024     0.494141                       # Percentage of cache occupancy per task id
system.cpu.dcache.tags.tag_accesses          16666429                       # Number of tag accesses
system.cpu.dcache.tags.data_accesses         16666429                       # Number of data accesses
system.cpu.dcache.pwrStateResidencyTicks::UNDEFINED   7230778000                       # Cumulative time (in ticks) in various power states
system.cpu.dcache.ReadReq_hits::.cpu.data      1554304                       # number of ReadReq hits
system.cpu.dcache.ReadReq_hits::total         1554304                       # number of ReadReq hits
system.cpu.dcache.WriteReq_hits::.cpu.data       528624                       # number of WriteReq hits
system.cpu.dcache.WriteReq_hits::total         528624                       # number of WriteReq hits
system.cpu.dcache.demand_hits::.cpu.data      2082928                       # number of demand (read+write) hits
system.cpu.dcache.demand_hits::total          2082928                       # number of demand (read+write) hits
system.cpu.dcache.overall_hits::.cpu.data      2082928                       # number of overall hits
system.cpu.dcache.overall_hits::total         2082928                       # number of overall hits
system.cpu.dcache.ReadReq_misses::.cpu.data          206                       # number of ReadReq misses
system.cpu.dcache.ReadReq_misses::total           206                       # number of ReadReq misses
system.cpu.dcache.WriteReq_misses::.cpu.data          138                       # number of WriteReq misses
system.cpu.dcache.WriteReq_misses::total          138                       # number of WriteReq misses
system.cpu.dcache.demand_misses::.cpu.data          344                       # number of demand (read+write) misses
system.cpu.dcache.demand_misses::total            344                       # number of demand (read+write) misses
system.cpu.dcache.overall_misses::.cpu.data          344                       # number of overall misses
system.cpu.dcache.overall_misses::total           344                       # number of overall misses
system.cpu.dcache.ReadReq_miss_latency::.cpu.data     16150500                       # number of ReadReq miss cycles
system.cpu.dcache.ReadReq_miss_latency::total     16150500                       # number of ReadReq miss cycles
system.cpu.dcache.WriteReq_miss_latency::.cpu.data     16686500                       # number of WriteReq miss cycles
system.cpu.dcache.WriteReq_miss_latency::total     16686500                       # number of WriteReq miss cycles
system.cpu.dcache.demand_miss_latency::.cpu.data     32837000                       # number of demand (read+write) miss cycles
system.cpu.dcache.demand_miss_latency::total     32837000                       # number of demand (read+write) miss cycles
system.cpu.dcache.overall_miss_latency::.cpu.data     32837000                       # number of overall miss cycles
system.cpu.dcache.overall_miss_latency::total     32837000                       # number of overall miss cycles
system.cpu.dcache.ReadReq_accesses::.cpu.data      1554510                       # number of ReadReq accesses(hits+misses)
system.cpu.dcache.ReadReq_accesses::total      1554510                       # number of ReadReq accesses(hits+misses)
system.cpu.dcache.WriteReq_accesses::.cpu.data       528762                       # number of WriteReq accesses(hits+misses)
system.cpu.dcache.WriteReq_accesses::total       528762                       # number of WriteReq accesses(hits+misses)
system.cpu.dcache.demand_accesses::.cpu.data      2083272                       # number of demand (read+write) accesses
system.cpu.dcache.demand_accesses::total      2083272                       # number of demand (read+write) accesses
system.cpu.dcache.overall_accesses::.cpu.data      2083272                       # number of overall (read+write) accesses
system.cpu.dcache.overall_accesses::total      2083272                       # number of overall (read+write) accesses
system.cpu.dcache.ReadReq_miss_rate::.cpu.data     0.000133                       # miss rate for ReadReq accesses
system.cpu.dcache.ReadReq_miss_rate::total     0.000133                       # miss rate for ReadReq accesses
system.cpu.dcache.WriteReq_miss_rate::.cpu.data     0.000261                       # miss rate for WriteReq accesses
system.cpu.dcache.WriteReq_miss_rate::total     0.000261                       # miss rate for WriteReq accesses
system.cpu.dcache.demand_miss_rate::.cpu.data     0.000165                       # miss rate for demand accesses
system.cpu.dcache.demand_miss_rate::total     0.000165                       # miss rate for demand accesses
system.cpu.dcache.overall_miss_rate::.cpu.data     0.000165                       # miss rate for overall accesses
system.cpu.dcache.overall_miss_rate::total     0.000165                       # miss rate for overall accesses
system.cpu.dcache.ReadReq_avg_miss_latency::.cpu.data 78400.485437                       # average ReadReq miss latency
system.cpu.dcache.ReadReq_avg_miss_latency::total 78400.485437                       # average ReadReq miss latency
system.cpu.dcache.WriteReq_avg_miss_latency::.cpu.data 120916.666667                       # average WriteReq miss latency
system.cpu.dcache.WriteReq_avg_miss_latency::total 120916.666667                       # average WriteReq miss latency
system.cpu.dcache.demand_avg_miss_latency::.cpu.data 95456.395349                       # average overall miss latency
system.cpu.dcache.demand_avg_miss_latency::total 95456.395349                       # average overall miss latency
system.cpu.dcache.overall_avg_miss_latency::.cpu.data 95456.395349                       # average overall miss latency
system.cpu.dcache.overall_avg_miss_latency::total 95456.395349                       # average overall miss latency
system.cpu.dcache.blocked_cycles::no_mshrs          341                       # number of cycles access was blocked
[...]
system.l3bus.snoop_fanout::overflows                0      0.00%    100.00% # Request fanout histogram
system.l3bus.snoop_fanout::min_value                0                       # Request fanout histogram
system.l3bus.snoop_fanout::max_value                0                       # Request fanout histogram
system.l3bus.snoop_fanout::total                  744                       # Request fanout histogram
system.l3bus.reqLayer0.occupancy               372000                       # Layer occupancy (ticks)
system.l3bus.reqLayer0.utilization                0.0                       # Layer utilization (%)
system.l3bus.respLayer0.occupancy             1860000                       # Layer occupancy (ticks)
system.l3bus.respLayer0.utilization               0.0                       # Layer utilization (%)
system.l3cache.tags.pwrStateResidencyTicks::UNDEFINED   7230778000                       # Cumulative time (in ticks) in various power states
system.l3cache.tags.tagsinuse              658.730972                       # Cycle average of tags in use
system.l3cache.tags.total_refs                    744                       # Total number of references to valid blocks.
system.l3cache.tags.sampled_refs                  744                       # Sample count of references to valid blocks.
system.l3cache.tags.avg_refs                        1                       # Average number of references to valid blocks.
system.l3cache.tags.warmup_cycle                76000                       # Cycle when the warmup percentage was hit.
system.l3cache.tags.occ_blocks::.cpu.inst   422.701902                       # Average occupied blocks per requestor
system.l3cache.tags.occ_blocks::.cpu.data   236.029070                       # Average occupied blocks per requestor
system.l3cache.tags.occ_percent::.cpu.inst     0.012900                       # Average percentage of cache occupancy
system.l3cache.tags.occ_percent::.cpu.data     0.007203                       # Average percentage of cache occupancy
system.l3cache.tags.occ_percent::total       0.020103                       # Average percentage of cache occupancy
system.l3cache.tags.occ_task_id_blocks::1024          744                       # Occupied blocks per task id
system.l3cache.tags.age_task_id_blocks_1024::0           80                       # Occupied blocks per task id
system.l3cache.tags.age_task_id_blocks_1024::2            1                       # Occupied blocks per task id
system.l3cache.tags.age_task_id_blocks_1024::3          663                       # Occupied blocks per task id
system.l3cache.tags.occ_task_id_percent::1024     0.022705                       # Percentage of cache occupancy per task id
system.l3cache.tags.tag_accesses                12648                       # Number of tag accesses
system.l3cache.tags.data_accesses               12648                       # Number of data accesses
system.l3cache.pwrStateResidencyTicks::UNDEFINED   7230778000                       # Cumulative time (in ticks) in various power states
system.l3cache.ReadExReq_misses::.cpu.data          137                       # number of ReadExReq misses
system.l3cache.ReadExReq_misses::total            137                       # number of ReadExReq misses
system.l3cache.ReadSharedReq_misses::.cpu.inst          491                       # number of ReadSharedReq misses
system.l3cache.ReadSharedReq_misses::.cpu.data          116                       # number of ReadSharedReq misses
system.l3cache.ReadSharedReq_misses::total          607                       # number of ReadSharedReq misses
system.l3cache.demand_misses::.cpu.inst           491                       # number of demand (read+write) misses
system.l3cache.demand_misses::.cpu.data           253                       # number of demand (read+write) misses
system.l3cache.demand_misses::total               744                       # number of demand (read+write) misses
system.l3cache.overall_misses::.cpu.inst          491                       # number of overall misses
system.l3cache.overall_misses::.cpu.data          253                       # number of overall misses
system.l3cache.overall_misses::total              744                       # number of overall misses
system.l3cache.ReadExReq_miss_latency::.cpu.data     14797000                       # number of ReadExReq miss cycles
system.l3cache.ReadExReq_miss_latency::total     14797000                       # number of ReadExReq miss cycles
system.l3cache.ReadSharedReq_miss_latency::.cpu.inst     35714500                       # number of ReadSharedReq miss cycles
system.l3cache.ReadSharedReq_miss_latency::.cpu.data      8252500                       # number of ReadSharedReq miss cycles
system.l3cache.ReadSharedReq_miss_latency::total     43967000                       # number of ReadSharedReq miss cycles
system.l3cache.demand_miss_latency::.cpu.inst     35714500                       # number of demand (read+write) miss cycles
system.l3cache.demand_miss_latency::.cpu.data     23049500                       # number of demand (read+write) miss cycles
system.l3cache.demand_miss_latency::total     58764000                       # number of demand (read+write) miss cycles
system.l3cache.overall_miss_latency::.cpu.inst     35714500                       # number of overall miss cycles
system.l3cache.overall_miss_latency::.cpu.data     23049500                       # number of overall miss cycles
system.l3cache.overall_miss_latency::total     58764000                       # number of overall miss cycles
system.l3cache.ReadExReq_accesses::.cpu.data          137                       # number of ReadExReq accesses(hits+misses)
system.l3cache.ReadExReq_accesses::total          137                       # number of ReadExReq accesses(hits+misses)
system.l3cache.ReadSharedReq_accesses::.cpu.inst          491                       # number of ReadSharedReq accesses(hits+misses)
system.l3cache.ReadSharedReq_accesses::.cpu.data          116                       # number of ReadSharedReq accesses(hits+misses)
system.l3cache.ReadSharedReq_accesses::total          607                       # number of ReadSharedReq accesses(hits+misses)
system.l3cache.demand_accesses::.cpu.inst          491                       # number of demand (read+write) accesses
system.l3cache.demand_accesses::.cpu.data          253                       # number of demand (read+write) accesses
system.l3cache.demand_accesses::total             744                       # number of demand (read+write) accesses
system.l3cache.overall_accesses::.cpu.inst          491                       # number of overall (read+write) accesses
system.l3cache.overall_accesses::.cpu.data          253                       # number of overall (read+write) accesses
system.l3cache.overall_accesses::total            744                       # number of overall (read+write) accesses
system.l3cache.ReadExReq_miss_rate::.cpu.data            1                       # miss rate for ReadExReq accesses
system.l3cache.ReadExReq_miss_rate::total            1                       # miss rate for ReadExReq accesses
system.l3cache.ReadSharedReq_miss_rate::.cpu.inst            1                       # miss rate for ReadSharedReq accesses
system.l3cache.ReadSharedReq_miss_rate::.cpu.data            1                       # miss rate for ReadSharedReq accesses
system.l3cache.ReadSharedReq_miss_rate::total            1                       # miss rate for ReadSharedReq accesses
system.l3cache.demand_miss_rate::.cpu.inst            1                       # miss rate for demand accesses
system.l3cache.demand_miss_rate::.cpu.data            1                       # miss rate for demand accesses
system.l3cache.demand_miss_rate::total              1                       # miss rate for demand accesses
system.l3cache.overall_miss_rate::.cpu.inst            1                       # miss rate for overall accesses
system.l3cache.overall_miss_rate::.cpu.data            1                       # miss rate for overall accesses
system.l3cache.overall_miss_rate::total             1                       # miss rate for overall accesses
system.l3cache.ReadExReq_avg_miss_latency::.cpu.data 108007.299270                       # average ReadExReq miss latency
system.l3cache.ReadExReq_avg_miss_latency::total 108007.299270                       # average ReadExReq miss latency
system.l3cache.ReadSharedReq_avg_miss_latency::.cpu.inst 72738.289206                       # average ReadSharedReq miss latency
system.l3cache.ReadSharedReq_avg_miss_latency::.cpu.data 71142.241379                       # average ReadSharedReq miss latency
system.l3cache.ReadSharedReq_avg_miss_latency::total 72433.278418                       # average ReadSharedReq miss latency
system.l3cache.demand_avg_miss_latency::.cpu.inst 72738.289206                       # average overall miss latency
system.l3cache.demand_avg_miss_latency::.cpu.data 91104.743083                       # average overall miss latency
system.l3cache.demand_avg_miss_latency::total 78983.870968                       # average overall miss latency
system.l3cache.overall_avg_miss_latency::.cpu.inst 72738.289206                       # average overall miss latency
system.l3cache.overall_avg_miss_latency::.cpu.data 91104.743083                       # average overall miss latency
system.l3cache.overall_avg_miss_latency::total 78983.870968                       # average overall miss latency
system.l3cache.blocked_cycles::no_mshrs             0                       # number of cycles access was blocked
system.l3cache.blocked_cycles::no_targets            0                       # number of cycles access was blocked
system.l3cache.blocked::no_mshrs                    0                       # number of cycles access was blocked
system.l3cache.blocked::no_targets                  0                       # number of cycles access was blocked
system.l3cache.avg_blocked_cycles::no_mshrs          nan                       # average number of cycles each access was blocked
system.l3cache.avg_blocked_cycles::no_targets          nan                       # average number of cycles each access was blocked
system.l3cache.ReadExReq_mshr_misses::.cpu.data          137                       # number of ReadExReq MSHR misses
system.l3cache.ReadExReq_mshr_misses::total          137                       # number of ReadExReq MSHR misses
system.l3cache.ReadSharedReq_mshr_misses::.cpu.inst          491                       # number of ReadSharedReq MSHR misses
system.l3cache.ReadSharedReq_mshr_misses::.cpu.data          116                       # number of ReadSharedReq MSHR misses
system.l3cache.ReadSharedReq_mshr_misses::total          607                       # number of ReadSharedReq MSHR misses
system.l3cache.demand_mshr_misses::.cpu.inst          491                       # number of demand (read+write) MSHR misses
system.l3cache.demand_mshr_misses::.cpu.data          253                       # number of demand (read+write) MSHR misses
system.l3cache.demand_mshr_misses::total          744                       # number of demand (read+write) MSHR misses
system.l3cache.overall_mshr_misses::.cpu.inst          491                       # number of overall MSHR misses
system.l3cache.overall_mshr_misses::.cpu.data          253                       # number of overall MSHR misses
system.l3cache.overall_mshr_misses::total          744                       # number of overall MSHR misses
system.l3cache.ReadExReq_mshr_miss_latency::.cpu.data     14523000                       # number of ReadExReq MSHR miss cycles
system.l3cache.ReadExReq_mshr_miss_latency::total     14523000                       # number of ReadExReq MSHR miss cycles
system.l3cache.ReadSharedReq_mshr_miss_latency::.cpu.inst     34732500                       # number of ReadSharedReq MSHR miss cycles
system.l3cache.ReadSharedReq_mshr_miss_latency::.cpu.data      8020500                       # number of ReadSharedReq MSHR miss cycles
system.l3cache.ReadSharedReq_mshr_miss_latency::total     42753000                       # number of ReadSharedReq MSHR miss cycles
system.l3cache.demand_mshr_miss_latency::.cpu.inst     34732500                       # number of demand (read+write) MSHR miss cycles
system.l3cache.demand_mshr_miss_latency::.cpu.data     22543500                       # number of demand (read+write) MSHR miss cycles
system.l3cache.demand_mshr_miss_latency::total     57276000                       # number of demand (read+write) MSHR miss cycles
system.l3cache.overall_mshr_miss_latency::.cpu.inst     34732500                       # number of overall MSHR miss cycles
system.l3cache.overall_mshr_miss_latency::.cpu.data     22543500                       # number of overall MSHR miss cycles
system.l3cache.overall_mshr_miss_latency::total     57276000                       # number of overall MSHR miss cycles
system.l3cache.ReadExReq_mshr_miss_rate::.cpu.data            1                       # mshr miss rate for ReadExReq accesses
system.l3cache.ReadExReq_mshr_miss_rate::total            1                       # mshr miss rate for ReadExReq accesses
system.l3cache.ReadSharedReq_mshr_miss_rate::.cpu.inst            1                       # mshr miss rate for ReadSharedReq accesses
system.l3cache.ReadSharedReq_mshr_miss_rate::.cpu.data            1                       # mshr miss rate for ReadSharedReq accesses
system.l3cache.ReadSharedReq_mshr_miss_rate::total            1                       # mshr miss rate for ReadSharedReq accesses
system.l3cache.demand_mshr_miss_rate::.cpu.inst            1                       # mshr miss rate for demand accesses
system.l3cache.demand_mshr_miss_rate::.cpu.data            1                       # mshr miss rate for demand accesses
system.l3cache.demand_mshr_miss_rate::total            1                       # mshr miss rate for demand accesses
system.l3cache.overall_mshr_miss_rate::.cpu.inst            1                       # mshr miss rate for overall accesses
system.l3cache.overall_mshr_miss_rate::.cpu.data            1                       # mshr miss rate for overall accesses
system.l3cache.overall_mshr_miss_rate::total            1                       # mshr miss rate for overall accesses
system.l3cache.ReadExReq_avg_mshr_miss_latency::.cpu.data 106007.299270                       # average ReadExReq mshr miss latency
system.l3cache.ReadExReq_avg_mshr_miss_latency::total 106007.299270                       # average ReadExReq mshr miss latency
system.l3cache.ReadSharedReq_avg_mshr_miss_latency::.cpu.inst 70738.289206                       # average ReadSharedReq mshr miss latency
system.l3cache.ReadSharedReq_avg_mshr_miss_latency::.cpu.data 69142.241379                       # average ReadSharedReq mshr miss latency
system.l3cache.ReadSharedReq_avg_mshr_miss_latency::total 70433.278418                       # average ReadSharedReq mshr miss latency
system.l3cache.demand_avg_mshr_miss_latency::.cpu.inst 70738.289206                       # average overall mshr miss latency
system.l3cache.demand_avg_mshr_miss_latency::.cpu.data 89104.743083                       # average overall mshr miss latency
system.l3cache.demand_avg_mshr_miss_latency::total 76983.870968                       # average overall mshr miss latency
system.l3cache.overall_avg_mshr_miss_latency::.cpu.inst 70738.289206                       # average overall mshr miss latency
system.l3cache.overall_avg_mshr_miss_latency::.cpu.data 89104.743083                       # average overall mshr miss latency
system.l3cache.overall_avg_mshr_miss_latency::total 76983.870968                       # average overall mshr miss latency
system.l3cache.replacements                         0                       # number of replacements
system.membus.snoop_filter.tot_requests           744                       # Total number of requests made to the snoop filter.
system.membus.snoop_filter.hit_single_requests            0                       # Number of requests hitting in the snoop filter with a single holder of the requested data.
system.membus.snoop_filter.hit_multi_requests            0                       # Number of requests hitting in the snoop filter with multiple (>1) holders of the requested data.
system.membus.snoop_filter.tot_snoops               0                       # Total number of snoops made to the snoop filter.
system.membus.snoop_filter.hit_single_snoops            0                       # Number of snoops hitting in the snoop filter with a single holder of the requested data.
system.membus.snoop_filter.hit_multi_snoops            0                       # Number of snoops hitting in the snoop filter with multiple (>1) holders of the requested data.
system.membus.pwrStateResidencyTicks::UNDEFINED   7230778000                       # Cumulative time (in ticks) in various power states
system.membus.trans_dist::ReadResp                607                       # Transaction distribution
system.membus.trans_dist::ReadExReq               137                       # Transaction distribution
system.membus.trans_dist::ReadExResp              137                       # Transaction distribution
system.membus.trans_dist::ReadSharedReq           607                       # Transaction distribution
system.membus.pkt_count_system.l3cache.mem_side::system.mem_ctrl.port         1488                       # Packet count per connected master and slave (bytes)
system.membus.pkt_count_system.l3cache.mem_side::total         1488                       # Packet count per connected master and slave (bytes)
system.membus.pkt_count::total                   1488                       # Packet count per connected master and slave (bytes)
system.membus.pkt_size_system.l3cache.mem_side::system.mem_ctrl.port        47616                       # Cumulative packet size per connected master and slave (bytes)
system.membus.pkt_size_system.l3cache.mem_side::total        47616                       # Cumulative packet size per connected master and slave (bytes)
system.membus.pkt_size::total                   47616                       # Cumulative packet size per connected master and slave (bytes)
system.membus.snoops                                0                       # Total snoops (count)
system.membus.snoopTraffic                          0                       # Total snoop traffic (bytes)
system.membus.snoop_fanout::samples               744                       # Request fanout histogram
system.membus.snoop_fanout::mean                    0                       # Request fanout histogram
system.membus.snoop_fanout::stdev                   0                       # Request fanout histogram
system.membus.snoop_fanout::underflows              0      0.00%      0.00% # Request fanout histogram
system.membus.snoop_fanout::0                     744    100.00%    100.00% # Request fanout histogram
system.membus.snoop_fanout::1                       0      0.00%    100.00% # Request fanout histogram
system.membus.snoop_fanout::overflows               0      0.00%    100.00% # Request fanout histogram
system.membus.snoop_fanout::min_value               0                       # Request fanout histogram
system.membus.snoop_fanout::max_value               0                       # Request fanout histogram
system.membus.snoop_fanout::total                 744                       # Request fanout histogram
system.membus.reqLayer0.occupancy              372000                       # Layer occupancy (ticks)
system.membus.reqLayer0.utilization               0.0                       # Layer utilization (%)
system.membus.respLayer0.occupancy            2015750                       # Layer occupancy (ticks)
system.membus.respLayer0.utilization              0.0                       # Layer utilization (%)

---------- End Simulation Statistics   ----------
