
---------- Begin Simulation Statistics ----------
sim_seconds                                  0.006734                       # Number of seconds simulated
sim_ticks                                  6734089500                       # Number of ticks simulated
final_tick                                 6734089500                       # Number of ticks from beginning of simulation (restored from checkpoints and never reset)
sim_freq                                 1000000000000                       # Frequency of simulated ticks
host_inst_rate                                  73862                       # Simulator instruction rate (inst/s)
host_op_rate                                   349717                       # Simulator op (including micro ops) rate (op/s)
host_tick_rate                               96908677                       # Simulator tick rate (ticks/s)
host_mem_usage                                 660800                       # Number of bytes of host memory used
host_seconds                                    69.49                       # Real time elapsed on the host
sim_insts                                     5132577                       # Number of instructions simulated
sim_ops                                      24301499                       # Number of ops (including micro ops) simulated
system.clk_domain.voltage_domain.voltage            1                       # Voltage in Volts
system.clk_domain.clock                           500                       # Clock period in ticks
system.mem_ctrl.pwrStateResidencyTicks::UNDEFINED   6734089500                       # Cumulative time (in ticks) in various power states
system.mem_ctrl.bytes_read::.cpu.inst           31936                       # Number of bytes read from this memory
system.mem_ctrl.bytes_read::.cpu.data           16192                       # Number of bytes read from this memory
system.mem_ctrl.bytes_read::total               48128                       # Number of bytes read from this memory
system.mem_ctrl.bytes_inst_read::.cpu.inst        31936                       # Number of instructions bytes read from this memory
system.mem_ctrl.bytes_inst_read::total          31936                       # Number of instructions bytes read from this memory
system.mem_ctrl.num_reads::.cpu.inst              499                       # Number of read requests responded to by this memory
system.mem_ctrl.num_reads::.cpu.data              253                       # Number of read requests responded to by this memory
system.mem_ctrl.num_reads::total                  752                       # Number of read requests responded to by this memory
system.mem_ctrl.bw_read::.cpu.inst            4742438                       # Total read bandwidth from this memory (bytes/s)
system.mem_ctrl.bw_read::.cpu.data            2404482                       # Total read bandwidth from this memory (bytes/s)
system.mem_ctrl.bw_read::total                7146920                       # Total read bandwidth from this memory (bytes/s)
system.mem_ctrl.bw_inst_read::.cpu.inst       4742438                       # Instruction read bandwidth from this memory (bytes/s)
system.mem_ctrl.bw_inst_read::total           4742438                       # Instruction read bandwidth from this memory (bytes/s)
system.mem_ctrl.bw_total::.cpu.inst           4742438                       # Total bandwidth to/from this memory (bytes/s)
system.mem_ctrl.bw_total::.cpu.data           2404482                       # Total bandwidth to/from this memory (bytes/s)
system.mem_ctrl.bw_total::total               7146920                       # Total bandwidth to/from this memory (bytes/s)
system.mem_ctrl.avgPriority_.cpu.inst::samples       499.00                       # Average QoS priority value for accepted requests
system.mem_ctrl.avgPriority_.cpu.data::samples       253.00                       # Average QoS priority value for accepted requests
system.mem_ctrl.priorityMinLatency       0.000000018750                       # per QoS priority minimum request to response latency (s)
system.mem_ctrl.priorityMaxLatency       0.000001099750                       # per QoS priority maximum request to response latency (s)
system.mem_ctrl.numReadWriteTurnArounds             0                       # Number of turnarounds from READ to WRITE
system.mem_ctrl.numWriteReadTurnArounds             0                       # Number of turnarounds from WRITE to READ
system.mem_ctrl.numStayReadState                 1525                       # Number of times bus staying in READ state
system.mem_ctrl.numStayWriteState                   0                       # Number of times bus staying in WRITE state
system.mem_ctrl.readReqs                          752                       # Number of read requests accepted
system.mem_ctrl.writeReqs                           0                       # Number of write requests accepted
system.mem_ctrl.readBursts                        752                       # Number of DRAM read bursts, including those serviced by the write queue
system.mem_ctrl.writeBursts                         0                       # Number of DRAM write bursts, including those merged in the write queue
system.mem_ctrl.bytesReadDRAM                   48128                       # Total number of bytes read from DRAM
system.mem_ctrl.bytesReadWrQ                        0                       # Total number of bytes read from write queue
system.mem_ctrl.bytesWritten                        0                       # Total number of bytes written to DRAM
system.mem_ctrl.bytesReadSys                    48128                       # Total read bytes from the system interface side
system.mem_ctrl.bytesWrittenSys                     0                       # Total written bytes from the system interface side
system.mem_ctrl.servicedByWrQ                       0                       # Number of DRAM read bursts serviced by the write queue
system.mem_ctrl.mergedWrBursts                      0                       # Number of DRAM write bursts merged with an existing one
system.mem_ctrl.neitherReadNorWriteReqs             0                       # Number of requests that are neither read nor write
system.mem_ctrl.perBankRdBursts::0                156                       # Per bank write bursts
system.mem_ctrl.perBankRdBursts::1                 20                       # Per bank write bursts
system.mem_ctrl.perBankRdBursts::2                 23                       # Per bank write bursts
system.mem_ctrl.perBankRdBursts::3                  8                       # Per bank write bursts
system.mem_ctrl.perBankRdBursts::4                  4                       # Per bank write bursts
system.mem_ctrl.perBankRdBursts::5                 15                       # Per bank write bursts
system.mem_ctrl.perBankRdBursts::6                 59                       # Per bank write bursts
system.mem_ctrl.perBankRdBursts::7                 43                       # Per bank write bursts
system.mem_ctrl.perBankRdBursts::8                  4                       # Per bank write bursts
system.mem_ctrl.perBankRdBursts::9                 29                       # Per bank write bursts
system.mem_ctrl.perBankRdBursts::10                48                       # Per bank write bursts
system.mem_ctrl.perBankRdBursts::11                21                       # Per bank write bursts
system.mem_ctrl.perBankRdBursts::12                98                       # Per bank write bursts
system.mem_ctrl.perBankRdBursts::13                60                       # Per bank write bursts
system.mem_ctrl.perBankRdBursts::14               110                       # Per bank write bursts
system.mem_ctrl.perBankRdBursts::15                54                       # Per bank write bursts
system.mem_ctrl.perBankWrBursts::0                  0                       # Per bank write bursts
system.mem_ctrl.perBankWrBursts::1                  0                       # Per bank write bursts
system.mem_ctrl.perBankWrBursts::2                  0                       # Per bank write bursts
system.mem_ctrl.perBankWrBursts::3                  0                       # Per bank write bursts
system.mem_ctrl.perBankWrBursts::4                  0                       # Per bank write bursts
system.mem_ctrl.perBankWrBursts::5                  0                       # Per bank write bursts
system.mem_ctrl.perBankWrBursts::6                  0                       # Per bank write bursts
system.mem_ctrl.perBankWrBursts::7                  0                       # Per bank write bursts
system.mem_ctrl.perBankWrBursts::8                  0                       # Per bank write bursts
system.mem_ctrl.perBankWrBursts::9                  0                       # Per bank write bursts
system.mem_ctrl.perBankWrBursts::10                 0                       # Per bank write bursts
system.mem_ctrl.perBankWrBursts::11                 0                       # Per bank write bursts
system.mem_ctrl.perBankWrBursts::12                 0                       # Per bank write bursts
system.mem_ctrl.perBankWrBursts::13                 0                       # Per bank write bursts
system.mem_ctrl.perBankWrBursts::14                 0                       # Per bank write bursts
system.mem_ctrl.perBankWrBursts::15                 0                       # Per bank write bursts
system.mem_ctrl.numRdRetry                          0                       # Number of times read queue was full causing retry
system.mem_ctrl.numWrRetry                          0                       # Number of times write queue was full causing retry
system.mem_ctrl.totGap                     6734002000                       # Total gap between requests
system.mem_ctrl.readPktSize::0                      0                       # Read request sizes (log2)
system.mem_ctrl.readPktSize::1                      0                       # Read request sizes (log2)
system.mem_ctrl.readPktSize::2                      0                       # Read request sizes (log2)
system.mem_ctrl.readPktSize::3                      0                       # Read request sizes (log2)
system.mem_ctrl.readPktSize::4                      0                       # Read request sizes (log2)
system.mem_ctrl.readPktSize::5                      0                       # Read request sizes (log2)
system.mem_ctrl.readPktSize::6                    752                       # Read request sizes (log2)
system.mem_ctrl.writePktSize::0                     0                       # Write request sizes (log2)
system.mem_ctrl.writePktSize::1                     0                       # Write request sizes (log2)
system.mem_ctrl.writePktSize::2                     0                       # Write request sizes (log2)
system.mem_ctrl.writePktSize::3                     0                       # Write request sizes (log2)
system.mem_ctrl.writePktSize::4                     0                       # Write request sizes (log2)
system.mem_ctrl.writePktSize::5                     0                       # Write request sizes (log2)
system.mem_ctrl.writePktSize::6                     0                       # Write request sizes (log2)
system.mem_ctrl.rdQLenPdf::0                      516                       # What read queue length does an incoming req see
system.mem_ctrl.rdQLenPdf::1                      189                       # What read queue length does an incoming req see
system.mem_ctrl.rdQLenPdf::2                       37                       # What read queue length does an incoming req see
system.mem_ctrl.rdQLenPdf::3                        9                       # What read queue length does an incoming req see
system.mem_ctrl.rdQLenPdf::4                        1                       # What read queue length does an incoming req see
system.mem_ctrl.rdQLenPdf::5                        0                       # What read queue length does an incoming req see
system.mem_ctrl.rdQLenPdf::6                        0                       # What read queue length does an incoming req see
system.mem_ctrl.rdQLenPdf::7                        0                       # What read queue length does an incoming req see
system.mem_ctrl.rdQLenPdf::8                        0                       # What read queue length does an incoming req see
system.mem_ctrl.rdQLenPdf::9                        0                       # What read queue length does an incoming req see
system.mem_ctrl.rdQLenPdf::10                       0                       # What read queue length does an incoming req see
system.mem_ctrl.rdQLenPdf::11                       0                       # What read queue length does an incoming req see
system.mem_ctrl.rdQLenPdf::12                       0                       # What read queue length does an incoming req see
system.mem_ctrl.rdQLenPdf::13                       0                       # What read queue length does an incoming req see
system.mem_ctrl.rdQLenPdf::14                       0                       # What read queue length does an incoming req see
system.mem_ctrl.rdQLenPdf::15                       0                       # What read queue length does an incoming req see
system.mem_ctrl.rdQLenPdf::16                       0                       # What read queue length does an incoming req see
system.mem_ctrl.rdQLenPdf::17                       0                       # What read queue length does an incoming req see
system.mem_ctrl.rdQLenPdf::18                       0                       # What read queue length does an incoming req see
system.mem_ctrl.rdQLenPdf::19                       0                       # What read queue length does an incoming req see
system.mem_ctrl.rdQLenPdf::20                       0                       # What read queue length does an incoming req see
system.mem_ctrl.rdQLenPdf::21                       0                       # What read queue length does an incoming req see
system.mem_ctrl.rdQLenPdf::22                       0                       # What read queue length does an incoming req see
system.mem_ctrl.rdQLenPdf::23                       0                       # What read queue length does an incoming req see
system.mem_ctrl.rdQLenPdf::24                       0                       # What read queue length does an incoming req see
system.mem_ctrl.rdQLenPdf::25                       0                       # What read queue length does an incoming req see
system.mem_ctrl.rdQLenPdf::26                       0                       # What read queue length does an incoming req see
system.mem_ctrl.rdQLenPdf::27                       0                       # What read queue length does an incoming req see
system.mem_ctrl.rdQLenPdf::28                       0                       # What read queue length does an incoming req see
system.mem_ctrl.rdQLenPdf::29                       0                       # What read queue length does an incoming req see
system.mem_ctrl.rdQLenPdf::30                       0                       # What read queue length does an incoming req see
system.mem_ctrl.rdQLenPdf::31                       0                       # What read queue length does an incoming req see
system.mem_ctrl.wrQLenPdf::0                        0                       # What write queue length does an incoming req see
system.mem_ctrl.wrQLenPdf::1                        0                       # What write queue length does an incoming req see
system.mem_ctrl.wrQLenPdf::2                        0                       # What write queue length does an incoming req see
system.mem_ctrl.wrQLenPdf::3                        0                       # What write queue length does an incoming req see
system.mem_ctrl.wrQLenPdf::4                        0                       # What write queue length does an incoming req see
system.mem_ctrl.wrQLenPdf::5                        0                       # What write queue length does an incoming req see
system.mem_ctrl.wrQLenPdf::6                        0                       # What write queue length does an incoming req see
system.mem_ctrl.wrQLenPdf::7                        0                       # What write queue length does an incoming req see
system.mem_ctrl.wrQLenPdf::8                        0                       # What write queue length does an incoming req see
system.mem_ctrl.wrQLenPdf::9                        0                       # What write queue length does an incoming req see
system.mem_ctrl.wrQLenPdf::10                       0                       # What write queue length does an incoming req see
system.mem_ctrl.wrQLenPdf::11                       0                       # What write queue length does an incoming req see
system.mem_ctrl.wrQLenPdf::12                       0                       # What write queue length does an incoming req see
system.mem_ctrl.wrQLenPdf::13                       0                       # What write queue length does an incoming req see
system.mem_ctrl.wrQLenPdf::14                       0                       # What write queue length does an incoming req see
system.mem_ctrl.wrQLenPdf::15                       0                       # What write queue length does an incoming req see
system.mem_ctrl.wrQLenPdf::16                       0                       # What write queue length does an incoming req see
system.mem_ctrl.wrQLenPdf::17                       0                       # What write queue length does an incoming req see
system.mem_ctrl.wrQLenPdf::18                       0                       # What write queue length does an incoming req see
system.mem_ctrl.wrQLenPdf::19                       0                       # What write queue length does an incoming req see
system.mem_ctrl.wrQLenPdf::20                       0                       # What write queue length does an incoming req see
system.mem_ctrl.wrQLenPdf::21                       0                       # What write queue length does an incoming req see
system.mem_ctrl.wrQLenPdf::22                       0                       # What write queue length does an incoming req see
system.mem_ctrl.wrQLenPdf::23                       0                       # What write queue length does an incoming req see
system.mem_ctrl.wrQLenPdf::24                       0                       # What write queue length does an incoming req see
system.mem_ctrl.wrQLenPdf::25                       0                       # What write queue length does an incoming req see
system.mem_ctrl.wrQLenPdf::26                       0                       # What write queue length does an incoming req see
system.mem_ctrl.wrQLenPdf::27                       0                       # What write queue length does an incoming req see
system.mem_ctrl.wrQLenPdf::28                       0                       # What write queue length does an incoming req see
system.mem_ctrl.wrQLenPdf::29                       0                       # What write queue length does an incoming req see
system.mem_ctrl.wrQLenPdf::30                       0                       # What write queue length does an incoming req see
system.mem_ctrl.wrQLenPdf::31                       0                       # What write queue length does an incoming req see
system.mem_ctrl.wrQLenPdf::32                       0                       # What write queue length does an incoming req see
system.mem_ctrl.wrQLenPdf::33                       0                       # What write queue length does an incoming req see
system.mem_ctrl.wrQLenPdf::34                       0                       # What write queue length does an incoming req see
system.mem_ctrl.wrQLenPdf::35                       0                       # What write queue length does an incoming req see
system.mem_ctrl.wrQLenPdf::36                       0                       # What write queue length does an incoming req see
system.mem_ctrl.wrQLenPdf::37                       0                       # What write queue length does an incoming req see
system.mem_ctrl.wrQLenPdf::38                       0                       # What write queue length does an incoming req see
system.mem_ctrl.wrQLenPdf::39                       0                       # What write queue length does an incoming req see
system.mem_ctrl.wrQLenPdf::40                       0                       # What write queue length does an incoming req see
system.mem_ctrl.wrQLenPdf::41                       0                       # What write queue length does an incoming req see
system.mem_ctrl.wrQLenPdf::42                       0                       # What write queue length does an incoming req see
system.mem_ctrl.wrQLenPdf::43                       0                       # What write queue length does an incoming req see
system.mem_ctrl.wrQLenPdf::44                       0                       # What write queue length does an incoming req see
system.mem_ctrl.wrQLenPdf::45                       0                       # What write queue length does an incoming req see
system.mem_ctrl.wrQLenPdf::46                       0                       # What write queue length does an incoming req see
system.mem_ctrl.wrQLenPdf::47                       0                       # What write queue length does an incoming req see
system.mem_ctrl.wrQLenPdf::48                       0                       # What write queue length does an incoming req see
system.mem_ctrl.wrQLenPdf::49                       0                       # What write queue length does an incoming req see
system.mem_ctrl.wrQLenPdf::50                       0                       # What write queue length does an incoming req see
system.mem_ctrl.wrQLenPdf::51                       0                       # What write queue length does an incoming req see
system.mem_ctrl.wrQLenPdf::52                       0                       # What write queue length does an incoming req see
system.mem_ctrl.wrQLenPdf::53                       0                       # What write queue length does an incoming req see
system.mem_ctrl.wrQLenPdf::54                       0                       # What write queue length does an incoming req see
system.mem_ctrl.wrQLenPdf::55                       0                       # What write queue length does an incoming req see
system.mem_ctrl.wrQLenPdf::56                       0                       # What write queue length does an incoming req see
system.mem_ctrl.wrQLenPdf::57                       0                       # What write queue length does an incoming req see
system.mem_ctrl.wrQLenPdf::58                       0                       # What write queue length does an incoming req see
system.mem_ctrl.wrQLenPdf::59                       0                       # What write queue length does an incoming req see
system.mem_ctrl.wrQLenPdf::60                       0                       # What write queue length does an incoming req see
system.mem_ctrl.wrQLenPdf::61                       0                       # What write queue length does an incoming req see
system.mem_ctrl.wrQLenPdf::62                       0                       # What write queue length does an incoming req see
system.mem_ctrl.wrQLenPdf::63                       0                       # What write queue length does an incoming req see
system.mem_ctrl.bytesPerActivate::samples          162                       # Bytes accessed per row activation
system.mem_ctrl.bytesPerActivate::mean     279.308642                       # Bytes accessed per row activation
system.mem_ctrl.bytesPerActivate::gmean    174.487320                       # Bytes accessed per row activation
system.mem_ctrl.bytesPerActivate::stdev    290.518177                       # Bytes accessed per row activation
system.mem_ctrl.bytesPerActivate::0-127            59     36.42%     36.42% # Bytes accessed per row activation
system.mem_ctrl.bytesPerActivate::128-255           42     25.93%     62.35% # Bytes accessed per row activation
system.mem_ctrl.bytesPerActivate::256-383           19     11.73%     74.07% # Bytes accessed per row activation
system.mem_ctrl.bytesPerActivate::384-511           14      8.64%     82.72% # Bytes accessed per row activation
system.mem_ctrl.bytesPerActivate::512-639            3      1.85%     84.57% # Bytes accessed per row activation
system.mem_ctrl.bytesPerActivate::640-767            6      3.70%     88.27% # Bytes accessed per row activation
system.mem_ctrl.bytesPerActivate::768-895            3      1.85%     90.12% # Bytes accessed per row activation
system.mem_ctrl.bytesPerActivate::896-1023            6      3.70%     93.83% # Bytes accessed per row activation
system.mem_ctrl.bytesPerActivate::1024-1151           10      6.17%    100.00% # Bytes accessed per row activation
system.mem_ctrl.bytesPerActivate::total           162                       # Bytes accessed per row activation
system.mem_ctrl.masterReadBytes::.cpu.inst        31936                       # Per-master bytes read from memory
system.mem_ctrl.masterReadBytes::.cpu.data        16192                       # Per-master bytes read from memory
system.mem_ctrl.masterReadRate::.cpu.inst 4742437.711883693002                       # Per-master bytes read from memory rate (Bytes/sec)
system.mem_ctrl.masterReadRate::.cpu.data 2404482.447107363027                       # Per-master bytes read from memory rate (Bytes/sec)
system.mem_ctrl.masterReadAccesses::.cpu.inst          499                       # Per-master read serviced memory accesses
system.mem_ctrl.masterReadAccesses::.cpu.data          253                       # Per-master read serviced memory accesses
system.mem_ctrl.masterReadTotalLat::.cpu.inst     18856250                       # Per-master read total memory access latency
system.mem_ctrl.masterReadTotalLat::.cpu.data     14024250                       # Per-master read total memory access latency
system.mem_ctrl.masterReadAvgLat::.cpu.inst     37788.08                       # Per-master read average memory access latency
system.mem_ctrl.masterReadAvgLat::.cpu.data     55431.82                       # Per-master read average memory access latency
system.mem_ctrl.totQLat                      18780500                       # Total ticks spent queuing
system.mem_ctrl.totMemAccLat                 32880500                       # Total ticks spent from burst creation until serviced by the DRAM
system.mem_ctrl.totBusLat                     3760000                       # Total ticks spent in databus transfers
system.mem_ctrl.avgQLat                      24974.07                       # Average queueing delay per DRAM burst
system.mem_ctrl.avgBusLat                     5000.00                       # Average bus latency per DRAM burst
system.mem_ctrl.avgMemAccLat                 43724.07                       # Average memory access latency per DRAM burst
system.mem_ctrl.avgRdBW                          7.15                       # Average DRAM read bandwidth in MiByte/s
system.mem_ctrl.avgWrBW                          0.00                       # Average achieved write bandwidth in MiByte/s
system.mem_ctrl.avgRdBWSys                       7.15                       # Average system read bandwidth in MiByte/s
system.mem_ctrl.avgWrBWSys                       0.00                       # Average system write bandwidth in MiByte/s
system.mem_ctrl.peakBW                       12800.00                       # Theoretical peak bandwidth in MiByte/s
system.mem_ctrl.busUtil                          0.06                       # Data bus utilization in percentage
system.mem_ctrl.busUtilRead                      0.06                       # Data bus utilization in percentage for reads
system.mem_ctrl.busUtilWrite                     0.00                       # Data bus utilization in percentage for writes
system.mem_ctrl.avgRdQLen                        1.00                       # Average read queue length when enqueuing
system.mem_ctrl.avgWrQLen                        0.00                       # Average write queue length when enqueuing
system.mem_ctrl.readRowHits                       579                       # Number of row buffer hits during reads
system.mem_ctrl.writeRowHits                        0                       # Number of row buffer hits during writes
system.mem_ctrl.readRowHitRate                  76.99                       # Row buffer hit rate for reads
system.mem_ctrl.writeRowHitRate                   nan                       # Row buffer hit rate for writes
system.mem_ctrl.avgGap                     8954789.89                       # Average gap between requests
system.mem_ctrl.pageHitRate                     76.99                       # Row buffer hit rate, read and write combined
system.mem_ctrl_0.actEnergy                    485520                       # Energy for activate commands per rank (pJ)
system.mem_ctrl_0.preEnergy                    242880                       # Energy for precharge commands per rank (pJ)
system.mem_ctrl_0.readEnergy                  2341920                       # Energy for read commands per rank (pJ)
system.mem_ctrl_0.writeEnergy                       0                       # Energy for write commands per rank (pJ)
system.mem_ctrl_0.refreshEnergy          17824560.000000                       # Energy for refresh commands per rank (pJ)
system.mem_ctrl_0.actBackEnergy               7258950                       # Energy for active background per rank (pJ)
system.mem_ctrl_0.preBackEnergy               1561920                       # Energy for precharge background per rank (pJ)
system.mem_ctrl_0.actPowerDownEnergy         56111940                       # Energy for active power-down per rank (pJ)
system.mem_ctrl_0.prePowerDownEnergy         34916160                       # Energy for precharge power-down per rank (pJ)
system.mem_ctrl_0.selfRefreshEnergy        1566656580                       # Energy for self refresh per rank (pJ)
system.mem_ctrl_0.totalEnergy              1687400430                       # Total energy per rank (pJ)
system.mem_ctrl_0.averagePower             250.575884                       # Core power per rank (mW)
system.mem_ctrl_0.totalIdleTime            6714064250                       # Total Idle time Per DRAM Rank
system.mem_ctrl_0.memoryStateTime::IDLE       3420500                       # Time in different power states
system.mem_ctrl_0.memoryStateTime::REF        7540000                       # Time in different power states
system.mem_ctrl_0.memoryStateTime::SREF    6500123750                       # Time in different power states
system.mem_ctrl_0.memoryStateTime::PRE_PDN     90927250                       # Time in different power states
system.mem_ctrl_0.memoryStateTime::ACT        9020500                       # Time in different power states
system.mem_ctrl_0.memoryStateTime::ACT_PDN    123057500                       # Time in different power states
system.mem_ctrl_1.actEnergy                    749700                       # Energy for activate commands per rank (pJ)
system.mem_ctrl_1.preEnergy                    371910                       # Energy for precharge commands per rank (pJ)
system.mem_ctrl_1.readEnergy                  3027360                       # Energy for read commands per rank (pJ)
system.mem_ctrl_1.writeEnergy                       0                       # Energy for write commands per rank (pJ)
system.mem_ctrl_1.refreshEnergy          7375680.000000                       # Energy for refresh commands per rank (pJ)
system.mem_ctrl_1.actBackEnergy               7139820                       # Energy for active background per rank (pJ)
system.mem_ctrl_1.preBackEnergy                490080                       # Energy for precharge background per rank (pJ)
system.mem_ctrl_1.actPowerDownEnergy         26298660                       # Energy for active power-down per rank (pJ)
system.mem_ctrl_1.prePowerDownEnergy          9935520                       # Energy for precharge power-down per rank (pJ)
system.mem_ctrl_1.selfRefreshEnergy        1593723120                       # Energy for self refresh per rank (pJ)
system.mem_ctrl_1.totalEnergy              1649111850                       # Total energy per rank (pJ)
system.mem_ctrl_1.averagePower             244.890100                       # Core power per rank (mW)
system.mem_ctrl_1.totalIdleTime            6717013500                       # Total Idle time Per DRAM Rank
system.mem_ctrl_1.memoryStateTime::IDLE        986000                       # Time in different power states
system.mem_ctrl_1.memoryStateTime::REF        3120000                       # Time in different power states
system.mem_ctrl_1.memoryStateTime::SREF    6633609000                       # Time in different power states
system.mem_ctrl_1.memoryStateTime::PRE_PDN     25872500                       # Time in different power states
system.mem_ctrl_1.memoryStateTime::ACT       12821750                       # Time in different power states
system.mem_ctrl_1.memoryStateTime::ACT_PDN     57680250                       # Time in different power states
system.pwrStateResidencyTicks::UNDEFINED   6734089500                       # Cumulative time (in ticks) in various power states
system.cpu.branchPred.lookups                 1548104                       # Number of BP lookups
system.cpu.branchPred.condPredicted           1548104                       # Number of conditional branches predicted
system.cpu.branchPred.condIncorrect             11512                       # Number of conditional branches incorrect
system.cpu.branchPred.BTBLookups              1126491                       # Number of BTB lookups
system.cpu.branchPred.BTBHits                       0                       # Number of BTB hits
system.cpu.branchPred.BTBCorrect                    0                       # Number of correct BTB predictions (this stat may not work properly.
system.cpu.branchPred.BTBHitPct              0.000000                       # BTB Hit Percentage
system.cpu.branchPred.usedRAS                    1969                       # Number of times the RAS was used to get a target.
system.cpu.branchPred.RASInCorrect                254                       # Number of incorrect RAS predictions.
system.cpu.branchPred.indirectLookups         1126491                       # Number of indirect predictor lookups.
system.cpu.branchPred.indirectHits            1020386                       # Number of indirect target hits.
system.cpu.branchPred.indirectMisses           106105                       # Number of indirect misses.
system.cpu.branchPredindirectMispredicted         2096                       # Number of mispredicted indirect branches.
system.cpu.dtb.walker.pwrStateResidencyTicks::UNDEFINED   6734089500                       # Cumulative time (in ticks) in various power states
system.cpu.dtb.rdAccesses                     2573271                       # TLB accesses on read requests
system.cpu.dtb.wrAccesses                      535106                       # TLB accesses on write requests
system.cpu.dtb.rdMisses                            63                       # TLB misses on read requests
system.cpu.dtb.wrMisses                            30                       # TLB misses on write requests
system.cpu.apic_clk_domain.clock                 8000                       # Clock period in ticks
system.cpu.interrupts.pwrStateResidencyTicks::UNDEFINED   6734089500                       # Cumulative time (in ticks) in various power states
system.cpu.itb.walker.pwrStateResidencyTicks::UNDEFINED   6734089500                       # Cumulative time (in ticks) in various power states
system.cpu.itb.rdAccesses                           0                       # TLB accesses on read requests
system.cpu.itb.wrAccesses                     1578044                       # TLB accesses on write requests
system.cpu.itb.rdMisses                             0                       # TLB misses on read requests
system.cpu.itb.wrMisses                           144                       # TLB misses on write requests
system.cpu.workload.numSyscalls                    11                       # Number of system calls
system.cpu.pwrStateResidencyTicks::ON      6734089500                       # Cumulative time (in ticks) in various power states
system.cpu.numCycles                         13468180                       # number of cpu cycles simulated
system.cpu.numWorkItemsStarted                      0                       # number of work items this cpu started
system.cpu.numWorkItemsCompleted                    0                       # number of work items this cpu completed
system.cpu.fetch.icacheStallCycles              39014                       # Number of cycles fetch is stalled on an Icache miss
system.cpu.fetch.Insts                        5212616                       # Number of instructions fetch has processed
system.cpu.fetch.Branches                     1548104                       # Number of branches that fetch encountered
system.cpu.fetch.predictedBranches            1022355                       # Number of branches that fetch has predicted taken
system.cpu.fetch.Cycles                      13383676                       # Number of cycles fetch has run and was not squashing or blocked
system.cpu.fetch.SquashCycles                   23262                       # Number of cycles fetch has spent squashing
system.cpu.fetch.MiscStallCycles                   78                       # Number of cycles fetch has spent waiting on interrupts, or bad addresses, or out of MSHRs
system.cpu.fetch.PendingTrapStallCycles           512                       # Number of stall cycles due to pending traps
system.cpu.fetch.PendingQuiesceStallCycles            5                       # Number of stall cycles due to pending quiesce instructions
system.cpu.fetch.CacheLines                   1577946                       # Number of cache lines fetched
system.cpu.fetch.IcacheSquashes                   187                       # Number of outstanding Icache misses that were squashed
system.cpu.fetch.rateDist::samples           13434916                       # Number of instructions fetched each cycle (Total)
system.cpu.fetch.rateDist::mean              1.834785                       # Number of instructions fetched each cycle (Total)
system.cpu.fetch.rateDist::stdev             0.475403                       # Number of instructions fetched each cycle (Total)
system.cpu.fetch.rateDist::underflows               0      0.00%      0.00% # Number of instructions fetched each cycle (Total)
system.cpu.fetch.rateDist::0                   591737      4.40%      4.40% # Number of instructions fetched each cycle (Total)
system.cpu.fetch.rateDist::1                  1036170      7.71%     12.12% # Number of instructions fetched each cycle (Total)
system.cpu.fetch.rateDist::2                 11807009     87.88%    100.00% # Number of instructions fetched each cycle (Total)
system.cpu.fetch.rateDist::overflows                0      0.00%    100.00% # Number of instructions fetched each cycle (Total)
system.cpu.fetch.rateDist::min_value                0                       # Number of instructions fetched each cycle (Total)
system.cpu.fetch.rateDist::max_value                2                       # Number of instructions fetched each cycle (Total)
system.cpu.fetch.rateDist::total             13434916                       # Number of instructions fetched each cycle (Total)
system.cpu.fetch.branchRate                  0.114945                       # Number of branch fetches per cycle
system.cpu.fetch.rate                        0.387032                       # Number of inst fetches per cycle
system.cpu.decode.IdleCycles                   561585                       # Number of cycles decode is idle
system.cpu.decode.BlockedCycles                 39665                       # Number of cycles decode is blocked
system.cpu.decode.RunCycles                  12809811                       # Number of cycles decode is running
system.cpu.decode.UnblockCycles                 12224                       # Number of cycles decode is unblocking
system.cpu.decode.SquashCycles                  11631                       # Number of cycles decode is squashing
system.cpu.decode.DecodedInsts               24624489                       # Number of instructions handled by decode
system.cpu.rename.SquashCycles                  11631                       # Number of cycles rename is squashing
system.cpu.rename.IdleCycles                   572336                       # Number of cycles rename is idle
system.cpu.rename.BlockCycles                   16541                       # Number of cycles rename is blocking
system.cpu.rename.serializeStallCycles            813                       # count of cycles rename stalled for serializing inst
system.cpu.rename.RunCycles                  12807059                       # Number of cycles rename is running
system.cpu.rename.UnblockCycles                 26536                       # Number of cycles rename is unblocking
system.cpu.rename.RenamedInsts               24604316                       # Number of instructions processed by rename
system.cpu.rename.ROBFullEvents                     5                       # Number of times rename has blocked due to ROB full
system.cpu.rename.IQFullEvents                    166                       # Number of times rename has blocked due to IQ full
system.cpu.rename.SQFullEvents                  21512                       # Number of times rename has blocked due to SQ full
system.cpu.rename.FullRegisterEvents              180                       # Number of times there has been no free registers
system.cpu.rename.RenamedOperands            35790222                       # Number of destination operands rename has renamed
system.cpu.rename.RenameLookups              90823121                       # Number of register rename lookups that rename has made
system.cpu.rename.int_rename_lookups         54627833                       # Number of integer rename lookups
system.cpu.rename.fp_rename_lookups             18321                       # Number of floating rename lookups
system.cpu.rename.CommittedMaps              35346661                       # Number of HB maps that are committed
system.cpu.rename.UndoneMaps                   443561                       # Number of HB maps that are undone due to squashing
system.cpu.rename.serializingInsts                 18                       # count of serializing insts renamed
system.cpu.rename.tempSerializingInsts             16                       # count of temporary serializing insts renamed
system.cpu.rename.skidInsts                      9948                       # count of insts added to the skid buffer
system.cpu.memDep0.insertedLoads              2581577                       # Number of loads inserted to the mem dependence unit.
system.cpu.memDep0.insertedStores              538833                       # Number of stores inserted to the mem dependence unit.
system.cpu.memDep0.conflictingLoads           1579970                       # Number of conflicting loads.
system.cpu.memDep0.conflictingStores             3776                       # Number of conflicting stores.
system.cpu.iq.iqInstsAdded                   24584342                       # Number of instructions added to the IQ (excludes non-spec)
system.cpu.iq.iqNonSpecInstsAdded                  85                       # Number of non-speculative instructions added to the IQ
system.cpu.iq.iqInstsIssued                  24432076                       # Number of instructions issued
system.cpu.iq.iqSquashedInstsIssued              6126                       # Number of squashed instructions issued
system.cpu.iq.iqSquashedInstsExamined          282927                       # Number of squashed instructions iterated over during squash; mainly for profiling
system.cpu.iq.iqSquashedOperandsExamined       662241                       # Number of squashed operands that are examined and possibly removed from graph
system.cpu.iq.iqSquashedNonSpecRemoved             74                       # Number of squashed non-spec instructions that were removed
system.cpu.iq.issued_per_cycle::samples      13434916                       # Number of insts issued each cycle
system.cpu.iq.issued_per_cycle::mean         1.818551                       # Number of insts issued each cycle
system.cpu.iq.issued_per_cycle::stdev        0.483977                       # Number of insts issued each cycle
system.cpu.iq.issued_per_cycle::underflows            0      0.00%      0.00% # Number of insts issued each cycle
system.cpu.iq.issued_per_cycle::0              575744      4.29%      4.29% # Number of insts issued each cycle
system.cpu.iq.issued_per_cycle::1             1286268      9.57%     13.86% # Number of insts issued each cycle
system.cpu.iq.issued_per_cycle::2            11572904     86.14%    100.00% # Number of insts issued each cycle
system.cpu.iq.issued_per_cycle::overflows            0      0.00%    100.00% # Number of insts issued each cycle
system.cpu.iq.issued_per_cycle::min_value            0                       # Number of insts issued each cycle
system.cpu.iq.issued_per_cycle::max_value            2                       # Number of insts issued each cycle
system.cpu.iq.issued_per_cycle::total        13434916                       # Number of insts issued each cycle
system.cpu.iq.fu_full::No_OpClass                   0      0.00%      0.00% # attempts to use FU when none available
system.cpu.iq.fu_full::IntAlu                       0      0.00%      0.00% # attempts to use FU when none available
system.cpu.iq.fu_full::IntMult                      0      0.00%      0.00% # attempts to use FU when none available
system.cpu.iq.fu_full::IntDiv                       0      0.00%      0.00% # attempts to use FU when none available
system.cpu.iq.fu_full::FloatAdd                     0      0.00%      0.00% # attempts to use FU when none available
system.cpu.iq.fu_full::FloatCmp                     0      0.00%      0.00% # attempts to use FU when none available
system.cpu.iq.fu_full::FloatCvt                     0      0.00%      0.00% # attempts to use FU when none available
system.cpu.iq.fu_full::FloatMult                    0      0.00%      0.00% # attempts to use FU when none available
system.cpu.iq.fu_full::FloatMultAcc                 0      0.00%      0.00% # attempts to use FU when none available
system.cpu.iq.fu_full::FloatDiv                     0      0.00%      0.00% # attempts to use FU when none available
system.cpu.iq.fu_full::FloatMisc                    0      0.00%      0.00% # attempts to use FU when none available
system.cpu.iq.fu_full::FloatSqrt                    0      0.00%      0.00% # attempts to use FU when none available
system.cpu.iq.fu_full::SimdAdd                    242      0.05%      0.05% # attempts to use FU when none available
system.cpu.iq.fu_full::SimdAddAcc                   0      0.00%      0.05% # attempts to use FU when none available
system.cpu.iq.fu_full::SimdAlu                    227      0.05%      0.10% # attempts to use FU when none available
system.cpu.iq.fu_full::SimdCmp                      0      0.00%      0.10% # attempts to use FU when none available
system.cpu.iq.fu_full::SimdCvt                    686      0.14%      0.24% # attempts to use FU when none available
system.cpu.iq.fu_full::SimdMisc                   802      0.16%      0.40% # attempts to use FU when none available
system.cpu.iq.fu_full::SimdMult                     0      0.00%      0.40% # attempts to use FU when none available
system.cpu.iq.fu_full::SimdMultAcc                  0      0.00%      0.40% # attempts to use FU when none available
system.cpu.iq.fu_full::SimdShift                    0      0.00%      0.40% # attempts to use FU when none available
system.cpu.iq.fu_full::SimdShiftAcc                 0      0.00%      0.40% # attempts to use FU when none available
system.cpu.iq.fu_full::SimdSqrt                     0      0.00%      0.40% # attempts to use FU when none available
system.cpu.iq.fu_full::SimdFloatAdd                 0      0.00%      0.40% # attempts to use FU when none available
system.cpu.iq.fu_full::SimdFloatAlu                 0      0.00%      0.40% # attempts to use FU when none available
system.cpu.iq.fu_full::SimdFloatCmp                 0      0.00%      0.40% # attempts to use FU when none available
system.cpu.iq.fu_full::SimdFloatCvt                 0      0.00%      0.40% # attempts to use FU when none available
system.cpu.iq.fu_full::SimdFloatDiv                 0      0.00%      0.40% # attempts to use FU when none available
system.cpu.iq.fu_full::SimdFloatMisc                0      0.00%      0.40% # attempts to use FU when none available
system.cpu.iq.fu_full::SimdFloatMult                0      0.00%      0.40% # attempts to use FU when none available
system.cpu.iq.fu_full::SimdFloatMultAcc             0      0.00%      0.40% # attempts to use FU when none available
system.cpu.iq.fu_full::SimdFloatSqrt                0      0.00%      0.40% # attempts to use FU when none available
system.cpu.iq.fu_full::SimdAes                      0      0.00%      0.40% # attempts to use FU when none available
system.cpu.iq.fu_full::SimdAesMix                   0      0.00%      0.40% # attempts to use FU when none available
system.cpu.iq.fu_full::SimdSha1Hash                 0      0.00%      0.40% # attempts to use FU when none available
system.cpu.iq.fu_full::SimdSha1Hash2                0      0.00%      0.40% # attempts to use FU when none available
system.cpu.iq.fu_full::SimdSha256Hash               0      0.00%      0.40% # attempts to use FU when none available
system.cpu.iq.fu_full::SimdSha256Hash2              0      0.00%      0.40% # attempts to use FU when none available
system.cpu.iq.fu_full::SimdShaSigma2                0      0.00%      0.40% # attempts to use FU when none available
system.cpu.iq.fu_full::SimdShaSigma3                0      0.00%      0.40% # attempts to use FU when none available
system.cpu.iq.fu_full::MemRead                 485087     98.78%     99.18% # attempts to use FU when none available
system.cpu.iq.fu_full::MemWrite                  4029      0.82%    100.00% # attempts to use FU when none available
system.cpu.iq.fu_full::FloatMemRead                 0      0.00%    100.00% # attempts to use FU when none available
system.cpu.iq.fu_full::FloatMemWrite                0      0.00%    100.00% # attempts to use FU when none available
system.cpu.iq.fu_full::IprAccess                    0      0.00%    100.00% # attempts to use FU when none available
system.cpu.iq.fu_full::InstPrefetch                 0      0.00%    100.00% # attempts to use FU when none available
system.cpu.iq.FU_type_0::No_OpClass            502237      2.06%      2.06% # Type of FU issued
system.cpu.iq.FU_type_0::IntAlu              17306480     70.84%     72.89% # Type of FU issued
system.cpu.iq.FU_type_0::IntMult                  479      0.00%     72.89% # Type of FU issued
system.cpu.iq.FU_type_0::IntDiv               3506314     14.35%     87.24% # Type of FU issued
system.cpu.iq.FU_type_0::FloatAdd                 346      0.00%     87.25% # Type of FU issued
system.cpu.iq.FU_type_0::FloatCmp                   0      0.00%     87.25% # Type of FU issued
system.cpu.iq.FU_type_0::FloatCvt                   0      0.00%     87.25% # Type of FU issued
system.cpu.iq.FU_type_0::FloatMult                  0      0.00%     87.25% # Type of FU issued
system.cpu.iq.FU_type_0::FloatMultAcc               0      0.00%     87.25% # Type of FU issued
system.cpu.iq.FU_type_0::FloatDiv                   0      0.00%     87.25% # Type of FU issued
system.cpu.iq.FU_type_0::FloatMisc                  0      0.00%     87.25% # Type of FU issued
system.cpu.iq.FU_type_0::FloatSqrt                  0      0.00%     87.25% # Type of FU issued
system.cpu.iq.FU_type_0::SimdAdd                  374      0.00%     87.25% # Type of FU issued
system.cpu.iq.FU_type_0::SimdAddAcc                 0      0.00%     87.25% # Type of FU issued
system.cpu.iq.FU_type_0::SimdAlu                 1412      0.01%     87.25% # Type of FU issued
system.cpu.iq.FU_type_0::SimdCmp                    0      0.00%     87.25% # Type of FU issued
system.cpu.iq.FU_type_0::SimdCvt                 1452      0.01%     87.26% # Type of FU issued
system.cpu.iq.FU_type_0::SimdMisc                3239      0.01%     87.27% # Type of FU issued
system.cpu.iq.FU_type_0::SimdMult                   0      0.00%     87.27% # Type of FU issued
system.cpu.iq.FU_type_0::SimdMultAcc                0      0.00%     87.27% # Type of FU issued
system.cpu.iq.FU_type_0::SimdShift                186      0.00%     87.27% # Type of FU issued
system.cpu.iq.FU_type_0::SimdShiftAcc               0      0.00%     87.27% # Type of FU issued
system.cpu.iq.FU_type_0::SimdSqrt                   0      0.00%     87.27% # Type of FU issued
system.cpu.iq.FU_type_0::SimdFloatAdd               0      0.00%     87.27% # Type of FU issued
system.cpu.iq.FU_type_0::SimdFloatAlu               0      0.00%     87.27% # Type of FU issued
system.cpu.iq.FU_type_0::SimdFloatCmp               0      0.00%     87.27% # Type of FU issued
system.cpu.iq.FU_type_0::SimdFloatCvt               0      0.00%     87.27% # Type of FU issued
system.cpu.iq.FU_type_0::SimdFloatDiv               0      0.00%     87.27% # Type of FU issued
system.cpu.iq.FU_type_0::SimdFloatMisc              0      0.00%     87.27% # Type of FU issued
system.cpu.iq.FU_type_0::SimdFloatMult              0      0.00%     87.27% # Type of FU issued
system.cpu.iq.FU_type_0::SimdFloatMultAcc            0      0.00%     87.27% # Type of FU issued
system.cpu.iq.FU_type_0::SimdFloatSqrt              0      0.00%     87.27% # Type of FU issued
system.cpu.iq.FU_type_0::SimdAes                    0      0.00%     87.27% # Type of FU issued
system.cpu.iq.FU_type_0::SimdAesMix                 0      0.00%     87.27% # Type of FU issued
system.cpu.iq.FU_type_0::SimdSha1Hash               0      0.00%     87.27% # Type of FU issued
system.cpu.iq.FU_type_0::SimdSha1Hash2              0      0.00%     87.27% # Type of FU issued
system.cpu.iq.FU_type_0::SimdSha256Hash             0      0.00%     87.27% # Type of FU issued
system.cpu.iq.FU_type_0::SimdSha256Hash2            0      0.00%     87.27% # Type of FU issued
system.cpu.iq.FU_type_0::SimdShaSigma2              0      0.00%     87.27% # Type of FU issued
system.cpu.iq.FU_type_0::SimdShaSigma3              0      0.00%     87.27% # Type of FU issued
system.cpu.iq.FU_type_0::MemRead              2572640     10.53%     97.80% # Type of FU issued
system.cpu.iq.FU_type_0::MemWrite              534895      2.19%     99.99% # Type of FU issued
system.cpu.iq.FU_type_0::FloatMemRead            1069      0.00%    100.00% # Type of FU issued
system.cpu.iq.FU_type_0::FloatMemWrite            953      0.00%    100.00% # Type of FU issued
system.cpu.iq.FU_type_0::IprAccess                  0      0.00%    100.00% # Type of FU issued
system.cpu.iq.FU_type_0::InstPrefetch               0      0.00%    100.00% # Type of FU issued
system.cpu.iq.FU_type_0::total               24432076                       # Type of FU issued
system.cpu.iq.rate                           1.814059                       # Inst issue rate
system.cpu.iq.fu_busy_cnt                      491073                       # FU busy when requested
system.cpu.iq.fu_busy_rate                   0.020100                       # FU busy rate (busy events/executed inst)
system.cpu.iq.int_inst_queue_reads           62773158                       # Number of integer instruction queue reads
system.cpu.iq.int_inst_queue_writes          24856484                       # Number of integer instruction queue writes
system.cpu.iq.int_inst_queue_wakeup_accesses     24404623                       # Number of integer instruction queue wakeup accesses
system.cpu.iq.fp_inst_queue_reads               23109                       # Number of floating instruction queue reads
system.cpu.iq.fp_inst_queue_writes              10905                       # Number of floating instruction queue writes
system.cpu.iq.fp_inst_queue_wakeup_accesses        10496                       # Number of floating instruction queue wakeup accesses
system.cpu.iq.vec_inst_queue_reads                  0                       # Number of vector instruction queue reads
system.cpu.iq.vec_inst_queue_writes                 0                       # Number of vector instruction queue writes
system.cpu.iq.vec_inst_queue_wakeup_accesses            0                       # Number of vector instruction queue wakeup accesses
system.cpu.iq.int_alu_accesses               24408402                       # Number of integer alu accesses
system.cpu.iq.fp_alu_accesses                   12510                       # Number of floating point alu accesses
system.cpu.iq.vec_alu_accesses                      0                       # Number of vector alu accesses
system.cpu.iew.lsq.thread0.forwLoads          1013062                       # Number of loads that had data forwarded from stores
system.cpu.iew.lsq.thread0.invAddrLoads             0                       # Number of loads ignored due to an invalid address
system.cpu.iew.lsq.thread0.squashedLoads        40105                       # Number of loads squashed
system.cpu.iew.lsq.thread0.ignoredResponses          733                       # Number of memory responses ignored because the instruction is squashed
system.cpu.iew.lsq.thread0.memOrderViolation           35                       # Number of memory ordering violations
system.cpu.iew.lsq.thread0.squashedStores        10082                       # Number of stores squashed
system.cpu.iew.lsq.thread0.invAddrSwpfs             0                       # Number of software prefetches ignored due to an invalid address
system.cpu.iew.lsq.thread0.blockedLoads             0                       # Number of blocked loads due to partial load-store forwarding
system.cpu.iew.lsq.thread0.rescheduledLoads            0                       # Number of loads that were rescheduled
system.cpu.iew.lsq.thread0.cacheBlocked             9                       # Number of times an access to memory failed due to the cache being blocked
system.cpu.iew.iewIdleCycles                        0                       # Number of cycles IEW is idle
system.cpu.iew.iewSquashCycles                  11631                       # Number of cycles IEW is squashing
system.cpu.iew.iewBlockCycles                   14792                       # Number of cycles IEW is blocking
system.cpu.iew.iewUnblockCycles                   412                       # Number of cycles IEW is unblocking
system.cpu.iew.iewDispatchedInsts            24584427                       # Number of instructions dispatched to IQ
system.cpu.iew.iewDispSquashedInsts                 0                       # Number of squashed instructions skipped by dispatch
system.cpu.iew.iewDispLoadInsts               2581577                       # Number of dispatched load instructions
system.cpu.iew.iewDispStoreInsts               538833                       # Number of dispatched store instructions
system.cpu.iew.iewDispNonSpecInsts                 38                       # Number of dispatched non-speculative instructions
system.cpu.iew.iewIQFullEvents                      9                       # Number of times the IQ has become full, causing a stall
system.cpu.iew.iewLSQFullEvents                   359                       # Number of times the LSQ has become full, causing a stall
system.cpu.iew.memOrderViolationEvents             35                       # Number of memory order violations
system.cpu.iew.predictedTakenIncorrect           8168                       # Number of branches that were predicted taken incorrectly
system.cpu.iew.predictedNotTakenIncorrect         3779                       # Number of branches that were predicted not taken incorrectly
system.cpu.iew.branchMispredicts                11947                       # Number of branch mispredicts detected at execute
system.cpu.iew.iewExecutedInsts              24421008                       # Number of executed instructions
system.cpu.iew.iewExecLoadInsts               2573265                       # Number of load instructions executed
system.cpu.iew.iewExecSquashedInsts             11068                       # Number of squashed instructions skipped in execute
system.cpu.iew.exec_swp                             0                       # number of swp insts executed
system.cpu.iew.exec_nop                             0                       # number of nop insts executed
system.cpu.iew.exec_refs                      3108359                       # number of memory reference insts executed
system.cpu.iew.exec_branches                  1535149                       # Number of branches executed
system.cpu.iew.exec_stores                     535094                       # Number of stores executed
system.cpu.iew.exec_rate                     1.813237                       # Inst execution rate
system.cpu.iew.wb_sent                       24419134                       # cumulative count of insts sent to commit
system.cpu.iew.wb_count                      24415119                       # cumulative count of insts written-back
system.cpu.iew.wb_producers                  21797572                       # num instructions producing a value
system.cpu.iew.wb_consumers                  59779495                       # num instructions consuming a value
system.cpu.iew.wb_rate                       1.812800                       # insts written-back per cycle
system.cpu.iew.wb_fanout                     0.364633                       # average fanout of values written-back
system.cpu.commit.commitSquashedInsts          262797                       # The number of squashed insts skipped by commit
system.cpu.commit.commitNonSpecStalls              11                       # The number of times commit has been forced to stall to communicate backwards
system.cpu.commit.branchMispredicts             11595                       # The number of times a branch was mispredicted
system.cpu.commit.committed_per_cycle::samples     13409409                       # Number of insts commited each cycle
system.cpu.commit.committed_per_cycle::mean     1.812272                       # Number of insts commited each cycle
system.cpu.commit.committed_per_cycle::stdev     0.493484                       # Number of insts commited each cycle
system.cpu.commit.committed_per_cycle::underflows            0      0.00%      0.00% # Number of insts commited each cycle
system.cpu.commit.committed_per_cycle::0       610400      4.55%      4.55% # Number of insts commited each cycle
system.cpu.commit.committed_per_cycle::1      1296519      9.67%     14.22% # Number of insts commited each cycle
system.cpu.commit.committed_per_cycle::2     11502490     85.78%    100.00% # Number of insts commited each cycle
system.cpu.commit.committed_per_cycle::overflows            0      0.00%    100.00% # Number of insts commited each cycle
system.cpu.commit.committed_per_cycle::min_value            0                       # Number of insts commited each cycle
system.cpu.commit.committed_per_cycle::max_value            2                       # Number of insts commited each cycle
system.cpu.commit.committed_per_cycle::total     13409409                       # Number of insts commited each cycle
system.cpu.commit.committedInsts              5132577                       # Number of instructions committed
system.cpu.commit.committedOps               24301499                       # Number of ops (including micro ops) committed
system.cpu.commit.swp_count                         0                       # Number of s/w prefetches committed
system.cpu.commit.refs                        3070223                       # Number of memory references committed
system.cpu.commit.loads                       2541472                       # Number of loads committed
system.cpu.commit.membars                           0                       # Number of memory barriers committed
system.cpu.commit.branches                    1530142                       # Number of branches committed
system.cpu.commit.vec_insts                         0                       # Number of committed Vector instructions.
system.cpu.commit.fp_insts                      10343                       # Number of committed floating point instructions.
system.cpu.commit.int_insts                  23791918                       # Number of committed integer instructions.
system.cpu.commit.function_calls                 1819                       # Number of function calls committed.
system.cpu.commit.op_class_0::No_OpClass       501944      2.07%      2.07% # Class of committed instruction
system.cpu.commit.op_class_0::IntAlu         17216319     70.84%     72.91% # Class of committed instruction
system.cpu.commit.op_class_0::IntMult             479      0.00%     72.91% # Class of committed instruction
system.cpu.commit.op_class_0::IntDiv          3505526     14.43%     87.34% # Class of committed instruction
system.cpu.commit.op_class_0::FloatAdd            346      0.00%     87.34% # Class of committed instruction
system.cpu.commit.op_class_0::FloatCmp              0      0.00%     87.34% # Class of committed instruction
system.cpu.commit.op_class_0::FloatCvt              0      0.00%     87.34% # Class of committed instruction
system.cpu.commit.op_class_0::FloatMult             0      0.00%     87.34% # Class of committed instruction
system.cpu.commit.op_class_0::FloatMultAcc            0      0.00%     87.34% # Class of committed instruction
system.cpu.commit.op_class_0::FloatDiv              0      0.00%     87.34% # Class of committed instruction
system.cpu.commit.op_class_0::FloatMisc             0      0.00%     87.34% # Class of committed instruction
system.cpu.commit.op_class_0::FloatSqrt             0      0.00%     87.34% # Class of committed instruction
system.cpu.commit.op_class_0::SimdAdd             374      0.00%     87.34% # Class of committed instruction
system.cpu.commit.op_class_0::SimdAddAcc            0      0.00%     87.34% # Class of committed instruction
system.cpu.commit.op_class_0::SimdAlu            1412      0.01%     87.35% # Class of committed instruction
system.cpu.commit.op_class_0::SimdCmp               0      0.00%     87.35% # Class of committed instruction
system.cpu.commit.op_class_0::SimdCvt            1452      0.01%     87.35% # Class of committed instruction
system.cpu.commit.op_class_0::SimdMisc           3238      0.01%     87.37% # Class of committed instruction
system.cpu.commit.op_class_0::SimdMult              0      0.00%     87.37% # Class of committed instruction
system.cpu.commit.op_class_0::SimdMultAcc            0      0.00%     87.37% # Class of committed instruction
system.cpu.commit.op_class_0::SimdShift           186      0.00%     87.37% # Class of committed instruction
system.cpu.commit.op_class_0::SimdShiftAcc            0      0.00%     87.37% # Class of committed instruction
system.cpu.commit.op_class_0::SimdSqrt              0      0.00%     87.37% # Class of committed instruction
system.cpu.commit.op_class_0::SimdFloatAdd            0      0.00%     87.37% # Class of committed instruction
system.cpu.commit.op_class_0::SimdFloatAlu            0      0.00%     87.37% # Class of committed instruction
system.cpu.commit.op_class_0::SimdFloatCmp            0      0.00%     87.37% # Class of committed instruction
system.cpu.commit.op_class_0::SimdFloatCvt            0      0.00%     87.37% # Class of committed instruction
system.cpu.commit.op_class_0::SimdFloatDiv            0      0.00%     87.37% # Class of committed instruction
system.cpu.commit.op_class_0::SimdFloatMisc            0      0.00%     87.37% # Class of committed instruction
system.cpu.commit.op_class_0::SimdFloatMult            0      0.00%     87.37% # Class of committed instruction
system.cpu.commit.op_class_0::SimdFloatMultAcc            0      0.00%     87.37% # Class of committed instruction
system.cpu.commit.op_class_0::SimdFloatSqrt            0      0.00%     87.37% # Class of committed instruction
system.cpu.commit.op_class_0::SimdAes               0      0.00%     87.37% # Class of committed instruction
system.cpu.commit.op_class_0::SimdAesMix            0      0.00%     87.37% # Class of committed instruction
system.cpu.commit.op_class_0::SimdSha1Hash            0      0.00%     87.37% # Class of committed instruction
system.cpu.commit.op_class_0::SimdSha1Hash2            0      0.00%     87.37% # Class of committed instruction
system.cpu.commit.op_class_0::SimdSha256Hash            0      0.00%     87.37% # Class of committed instruction
system.cpu.commit.op_class_0::SimdSha256Hash2            0      0.00%     87.37% # Class of committed instruction
system.cpu.commit.op_class_0::SimdShaSigma2            0      0.00%     87.37% # Class of committed instruction
system.cpu.commit.op_class_0::SimdShaSigma3            0      0.00%     87.37% # Class of committed instruction
system.cpu.commit.op_class_0::MemRead         2540408     10.45%     97.82% # Class of committed instruction
system.cpu.commit.op_class_0::MemWrite         528000      2.17%     99.99% # Class of committed instruction
system.cpu.commit.op_class_0::FloatMemRead         1064      0.00%    100.00% # Class of committed instruction
system.cpu.commit.op_class_0::FloatMemWrite          751      0.00%    100.00% # Class of committed instruction
system.cpu.commit.op_class_0::IprAccess             0      0.00%    100.00% # Class of committed instruction
system.cpu.commit.op_class_0::InstPrefetch            0      0.00%    100.00% # Class of committed instruction
system.cpu.commit.op_class_0::total          24301499                       # Class of committed instruction
system.cpu.commit.bw_lim_events              11502490                       # number cycles where commit BW limit reached
system.cpu.rob.rob_reads                     26471215                       # The number of ROB reads
system.cpu.rob.rob_writes                    49154127                       # The number of ROB writes
system.cpu.timesIdled                             364                       # Number of times that the entire CPU went into an idle state and unscheduled itself
system.cpu.idleCycles                           33264                       # Total number of cycles that the CPU has spent unscheduled due to idling
system.cpu.committedInsts                     5132577                       # Number of Instructions Simulated
system.cpu.committedOps                      24301499                       # Number of Ops (including micro ops) Simulated
system.cpu.cpi                               2.624058                       # CPI: Cycles Per Instruction
system.cpu.cpi_total                         2.624058                       # CPI: Total CPI of All Threads
system.cpu.ipc                               0.381089                       # IPC: Instructions Per Cycle
system.cpu.ipc_total                         0.381089                       # IPC: Total IPC of All Threads
system.cpu.int_regfile_reads                 54152709                       # number of integer regfile reads
system.cpu.int_regfile_writes                29351824                       # number of integer regfile writes
system.cpu.fp_regfile_reads                     18034                       # number of floating regfile reads
system.cpu.fp_regfile_writes                     8874                       # number of floating regfile writes
system.cpu.cc_regfile_reads                  30727476                       # number of cc regfile reads
system.cpu.cc_regfile_writes                  6134547                       # number of cc regfile writes
system.cpu.misc_regfile_reads                 5180685                       # number of misc regfile reads
system.cpu.dcache.tags.pwrStateResidencyTicks::UNDEFINED   6734089500                       # Cumulative time (in ticks) in various power states
system.cpu.dcache.tags.tagsinuse           236.001137                       # Cycle average of tags in use
system.cpu.dcache.tags.total_refs             2088819                       # Total number of references to valid blocks.
system.cpu.dcache.tags.sampled_refs               253                       # Sample count of references to valid blocks.
system.cpu.dcache.tags.avg_refs           8256.201581                       # Average number of references to valid blocks.
system.cpu.dcache.tags.warmup_cycle            167500                       # Cycle when the warmup percentage was hit.
system.cpu.dcache.tags.occ_blocks::.cpu.data   236.001137                       # Average occupied blocks per requestor
system.cpu.dcache.tags.occ_percent::.cpu.data     0.460940                       # Average percentage of cache occupancy
system.cpu.dcache.tags.occ_percent::total     0.460940                       # Average percentage of cache occupancy
system.cpu.dcache.tags.occ_task_id_blocks::1024          253                       # Occupied blocks per task id
system.cpu.dcache.tags.age_task_id_blocks_1024::0           13                       # Occupied blocks per task id
system.cpu.dcache.tags.age_task_id_blocks_1024::2            1                       # Occupied blocks per task id
system.cpu.dcache.tags.age_task_id_blocks_1024::3          239                       # Occupied blocks per task id
system.cpu.dcache.tags.occ_task_id_percent::1024     0.494141                       # Percentage of cache occupancy per task id
system.cpu.dcache.tags.tag_accesses          16711565                       # Number of tag accesses
system.cpu.dcache.tags.data_accesses         16711565                       # Number of data accesses
system.cpu.dcache.pwrStateResidencyTicks::UNDEFINED   6734089500                       # Cumulative time (in ticks) in various power states
system.cpu.dcache.ReadReq_hits::.cpu.data      1559941                       # number of ReadReq hits
system.cpu.dcache.ReadReq_hits::total         1559941                       # number of ReadReq hits
system.cpu.dcache.WriteReq_hits::.cpu.data       528625                       # number of WriteReq hits
system.cpu.dcache.WriteReq_hits::total         528625                       # number of WriteReq hits
system.cpu.dcache.demand_hits::.cpu.data      2088566                       # number of demand (read+write) hits
system.cpu.dcache.demand_hits::total          2088566                       # number of demand (read+write) hits
system.cpu.dcache.overall_hits::.cpu.data      2088566                       # number of overall hits
system.cpu.dcache.overall_hits::total         2088566                       # number of overall hits
system.cpu.dcache.ReadReq_misses::.cpu.data          211                       # number of ReadReq misses
system.cpu.dcache.ReadReq_misses::total           211                       # number of ReadReq misses
system.cpu.dcache.WriteReq_misses::.cpu.data          137                       # number of WriteReq misses
system.cpu.dcache.WriteReq_misses::total          137                       # number of WriteReq misses
system.cpu.dcache.demand_misses::.cpu.data          348                       # number of demand (read+write) misses
system.cpu.dcache.demand_misses::total            348                       # number of demand (read+write) misses
system.cpu.dcache.overall_misses::.cpu.data          348                       # number of overall misses
system.cpu.dcache.overall_misses::total           348                       # number of overall misses
system.cpu.dcache.ReadReq_miss_latency::.cpu.data     16894500                       # number of ReadReq miss cycles
system.cpu.dcache.ReadReq_miss_latency::total     16894500                       # number of ReadReq miss cycles
system.cpu.dcache.WriteReq_miss_latency::.cpu.data     16862500                       # number of WriteReq miss cycles
system.cpu.dcache.WriteReq_miss_latency::total     16862500                       # number of WriteReq miss cycles
system.cpu.dcache.demand_miss_latency::.cpu.data     33757000                       # number of demand (read+write) miss cycles
system.cpu.dcache.demand_miss_latency::total     33757000                       # number of demand (read+write) miss cycles
system.cpu.dcache.overall_miss_latency::.cpu.data     33757000                       # number of overall miss cycles
system.cpu.dcache.overall_miss_latency::total     33757000                       # number of overall miss cycles
system.cpu.dcache.ReadReq_accesses::.cpu.data      1560152                       # number of ReadReq accesses(hits+misses)
system.cpu.dcache.ReadReq_accesses::total      1560152                       # number of ReadReq accesses(hits+misses)
system.cpu.dcache.WriteReq_accesses::.cpu.data       528762                       # number of WriteReq accesses(hits+misses)
system.cpu.dcache.WriteReq_accesses::total       528762                       # number of WriteReq accesses(hits+misses)
system.cpu.dcache.demand_accesses::.cpu.data      2088914                       # number of demand (read+write) accesses
system.cpu.dcache.demand_accesses::total      2088914                       # number of demand (read+write) accesses
system.cpu.dcache.overall_accesses::.cpu.data      2088914                       # number of overall (read+write) accesses
system.cpu.dcache.overall_accesses::total      2088914                       # number of overall (read+write) accesses
system.cpu.dcache.ReadReq_miss_rate::.cpu.data     0.000135                       # miss rate for ReadReq accesses
system.cpu.dcache.ReadReq_miss_rate::total     0.000135                       # miss rate for ReadReq accesses
system.cpu.dcache.WriteReq_miss_rate::.cpu.data     0.000259                       # miss rate for WriteReq accesses
system.cpu.dcache.WriteReq_miss_rate::total     0.000259                       # miss rate for WriteReq accesses
system.cpu.dcache.demand_miss_rate::.cpu.data     0.000167                       # miss rate for demand accesses
system.cpu.dcache.demand_miss_rate::total     0.000167                       # miss rate for demand accesses
system.cpu.dcache.overall_miss_rate::.cpu.data     0.000167                       # miss rate for overall accesses
system.cpu.dcache.overall_miss_rate::total     0.000167                       # miss rate for overall accesses
system.cpu.dcache.ReadReq_avg_miss_latency::.cpu.data 80068.720379                       # average ReadReq miss latency
system.cpu.dcache.ReadReq_avg_miss_latency::total 80068.720379                       # average ReadReq miss latency
system.cpu.dcache.WriteReq_avg_miss_latency::.cpu.data 123083.941606                       # average WriteReq miss latency
system.cpu.dcache.WriteReq_avg_miss_latency::total 123083.941606                       # average WriteReq miss latency
system.cpu.dcache.demand_avg_miss_latency::.cpu.data 97002.873563                       # average overall miss latency
system.cpu.dcache.demand_avg_miss_latency::total 97002.873563                       # average overall miss latency
system.cpu.dcache.overall_avg_miss_latency::.cpu.data 97002.873563                       # average overall miss latency
system.cpu.dcache.overall_avg_miss_latency::total 97002.873563                       # average overall miss latency
system.cpu.dcache.blocked_cycles::no_mshrs          332                       # number of cycles access was blocked
[...]
system.l3bus.snoop_fanout::overflows                0      0.00%    100.00% # Request fanout histogram
system.l3bus.snoop_fanout::min_value                0                       # Request fanout histogram
system.l3bus.snoop_fanout::max_value                0                       # Request fanout histogram
system.l3bus.snoop_fanout::total                  752                       # Request fanout histogram
system.l3bus.reqLayer0.occupancy               376000                       # Layer occupancy (ticks)
system.l3bus.reqLayer0.utilization                0.0                       # Layer utilization (%)
system.l3bus.respLayer0.occupancy             1880000                       # Layer occupancy (ticks)
system.l3bus.respLayer0.utilization               0.0                       # Layer utilization (%)
system.l3cache.tags.pwrStateResidencyTicks::UNDEFINED   6734089500                       # Cumulative time (in ticks) in various power states
system.l3cache.tags.tagsinuse              667.042694                       # Cycle average of tags in use
system.l3cache.tags.total_refs                    752                       # Total number of references to valid blocks.
system.l3cache.tags.sampled_refs                  752                       # Sample count of references to valid blocks.
system.l3cache.tags.avg_refs                        1                       # Average number of references to valid blocks.
system.l3cache.tags.warmup_cycle                76000                       # Cycle when the warmup percentage was hit.
system.l3cache.tags.occ_blocks::.cpu.inst   431.041332                       # Average occupied blocks per requestor
system.l3cache.tags.occ_blocks::.cpu.data   236.001362                       # Average occupied blocks per requestor
system.l3cache.tags.occ_percent::.cpu.inst     0.013154                       # Average percentage of cache occupancy
system.l3cache.tags.occ_percent::.cpu.data     0.007202                       # Average percentage of cache occupancy
system.l3cache.tags.occ_percent::total       0.020357                       # Average percentage of cache occupancy
system.l3cache.tags.occ_task_id_blocks::1024          752                       # Occupied blocks per task id
system.l3cache.tags.age_task_id_blocks_1024::0           79                       # Occupied blocks per task id
system.l3cache.tags.age_task_id_blocks_1024::2            1                       # Occupied blocks per task id
system.l3cache.tags.age_task_id_blocks_1024::3          672                       # Occupied blocks per task id
system.l3cache.tags.occ_task_id_percent::1024     0.022949                       # Percentage of cache occupancy per task id
system.l3cache.tags.tag_accesses                12784                       # Number of tag accesses
system.l3cache.tags.data_accesses               12784                       # Number of data accesses
system.l3cache.pwrStateResidencyTicks::UNDEFINED   6734089500                       # Cumulative time (in ticks) in various power states
system.l3cache.ReadExReq_misses::.cpu.data          136                       # number of ReadExReq misses
system.l3cache.ReadExReq_misses::total            136                       # number of ReadExReq misses
system.l3cache.ReadSharedReq_misses::.cpu.inst          499                       # number of ReadSharedReq misses
system.l3cache.ReadSharedReq_misses::.cpu.data          117                       # number of ReadSharedReq misses
system.l3cache.ReadSharedReq_misses::total          616                       # number of ReadSharedReq misses
system.l3cache.demand_misses::.cpu.inst           499                       # number of demand (read+write) misses
system.l3cache.demand_misses::.cpu.data           253                       # number of demand (read+write) misses
system.l3cache.demand_misses::total               752                       # number of demand (read+write) misses
system.l3cache.overall_misses::.cpu.inst          499                       # number of overall misses
system.l3cache.overall_misses::.cpu.data          253                       # number of overall misses
system.l3cache.overall_misses::total              752                       # number of overall misses
system.l3cache.ReadExReq_miss_latency::.cpu.data     14991000                       # number of ReadExReq miss cycles
system.l3cache.ReadExReq_miss_latency::total     14991000                       # number of ReadExReq miss cycles
system.l3cache.ReadSharedReq_miss_latency::.cpu.inst     37427000                       # number of ReadSharedReq miss cycles
system.l3cache.ReadSharedReq_miss_latency::.cpu.data      8445500                       # number of ReadSharedReq miss cycles
system.l3cache.ReadSharedReq_miss_latency::total     45872500                       # number of ReadSharedReq miss cycles
system.l3cache.demand_miss_latency::.cpu.inst     37427000                       # number of demand (read+write) miss cycles
system.l3cache.demand_miss_latency::.cpu.data     23436500                       # number of demand (read+write) miss cycles
system.l3cache.demand_miss_latency::total     60863500                       # number of demand (read+write) miss cycles
system.l3cache.overall_miss_latency::.cpu.inst     37427000                       # number of overall miss cycles
system.l3cache.overall_miss_latency::.cpu.data     23436500                       # number of overall miss cycles
system.l3cache.overall_miss_latency::total     60863500                       # number of overall miss cycles
system.l3cache.ReadExReq_accesses::.cpu.data          136                       # number of ReadExReq accesses(hits+misses)
system.l3cache.ReadExReq_accesses::total          136                       # number of ReadExReq accesses(hits+misses)
system.l3cache.ReadSharedReq_accesses::.cpu.inst          499                       # number of ReadSharedReq accesses(hits+misses)
system.l3cache.ReadSharedReq_accesses::.cpu.data          117                       # number of ReadSharedReq accesses(hits+misses)
system.l3cache.ReadSharedReq_accesses::total          616                       # number of ReadSharedReq accesses(hits+misses)
system.l3cache.demand_accesses::.cpu.inst          499                       # number of demand (read+write) accesses
system.l3cache.demand_accesses::.cpu.data          253                       # number of demand (read+write) accesses
system.l3cache.demand_accesses::total             752                       # number of demand (read+write) accesses
system.l3cache.overall_accesses::.cpu.inst          499                       # number of overall (read+write) accesses
system.l3cache.overall_accesses::.cpu.data          253                       # number of overall (read+write) accesses
system.l3cache.overall_accesses::total            752                       # number of overall (read+write) accesses
system.l3cache.ReadExReq_miss_rate::.cpu.data            1                       # miss rate for ReadExReq accesses
system.l3cache.ReadExReq_miss_rate::total            1                       # miss rate for ReadExReq accesses
system.l3cache.ReadSharedReq_miss_rate::.cpu.inst            1                       # miss rate for ReadSharedReq accesses
system.l3cache.ReadSharedReq_miss_rate::.cpu.data            1                       # miss rate for ReadSharedReq accesses
system.l3cache.ReadSharedReq_miss_rate::total            1                       # miss rate for ReadSharedReq accesses
system.l3cache.demand_miss_rate::.cpu.inst            1                       # miss rate for demand accesses
system.l3cache.demand_miss_rate::.cpu.data            1                       # miss rate for demand accesses
system.l3cache.demand_miss_rate::total              1                       # miss rate for demand accesses
system.l3cache.overall_miss_rate::.cpu.inst            1                       # miss rate for overall accesses
system.l3cache.overall_miss_rate::.cpu.data            1                       # miss rate for overall accesses
system.l3cache.overall_miss_rate::total             1                       # miss rate for overall accesses
system.l3cache.ReadExReq_avg_miss_latency::.cpu.data 110227.941176                       # average ReadExReq miss latency
system.l3cache.ReadExReq_avg_miss_latency::total 110227.941176                       # average ReadExReq miss latency
system.l3cache.ReadSharedReq_avg_miss_latency::.cpu.inst 75004.008016                       # average ReadSharedReq miss latency
system.l3cache.ReadSharedReq_avg_miss_latency::.cpu.data 72183.760684                       # average ReadSharedReq miss latency
system.l3cache.ReadSharedReq_avg_miss_latency::total 74468.344156                       # average ReadSharedReq miss latency
system.l3cache.demand_avg_miss_latency::.cpu.inst 75004.008016                       # average overall miss latency
system.l3cache.demand_avg_miss_latency::.cpu.data 92634.387352                       # average overall miss latency
system.l3cache.demand_avg_miss_latency::total 80935.505319                       # average overall miss latency
system.l3cache.overall_avg_miss_latency::.cpu.inst 75004.008016                       # average overall miss latency
system.l3cache.overall_avg_miss_latency::.cpu.data 92634.387352                       # average overall miss latency
system.l3cache.overall_avg_miss_latency::total 80935.505319                       # average overall miss latency
system.l3cache.blocked_cycles::no_mshrs             0                       # number of cycles access was blocked
system.l3cache.blocked_cycles::no_targets            0                       # number of cycles access was blocked
system.l3cache.blocked::no_mshrs                    0                       # number of cycles access was blocked
system.l3cache.blocked::no_targets                  0                       # number of cycles access was blocked
system.l3cache.avg_blocked_cycles::no_mshrs          nan                       # average number of cycles each access was blocked
system.l3cache.avg_blocked_cycles::no_targets          nan                       # average number of cycles each access was blocked
system.l3cache.ReadExReq_mshr_misses::.cpu.data          136                       # number of ReadExReq MSHR misses
system.l3cache.ReadExReq_mshr_misses::total          136                       # number of ReadExReq MSHR misses
system.l3cache.ReadSharedReq_mshr_misses::.cpu.inst          499                       # number of ReadSharedReq MSHR misses
system.l3cache.ReadSharedReq_mshr_misses::.cpu.data          117                       # number of ReadSharedReq MSHR misses
system.l3cache.ReadSharedReq_mshr_misses::total          616                       # number of ReadSharedReq MSHR misses
system.l3cache.demand_mshr_misses::.cpu.inst          499                       # number of demand (read+write) MSHR misses
system.l3cache.demand_mshr_misses::.cpu.data          253                       # number of demand (read+write) MSHR misses
system.l3cache.demand_mshr_misses::total          752                       # number of demand (read+write) MSHR misses
system.l3cache.overall_mshr_misses::.cpu.inst          499                       # number of overall MSHR misses
system.l3cache.overall_mshr_misses::.cpu.data          253                       # number of overall MSHR misses
system.l3cache.overall_mshr_misses::total          752                       # number of overall MSHR misses
system.l3cache.ReadExReq_mshr_miss_latency::.cpu.data     14719000                       # number of ReadExReq MSHR miss cycles
system.l3cache.ReadExReq_mshr_miss_latency::total     14719000                       # number of ReadExReq MSHR miss cycles
system.l3cache.ReadSharedReq_mshr_miss_latency::.cpu.inst     36429000                       # number of ReadSharedReq MSHR miss cycles
system.l3cache.ReadSharedReq_mshr_miss_latency::.cpu.data      8211500                       # number of ReadSharedReq MSHR miss cycles
system.l3cache.ReadSharedReq_mshr_miss_latency::total     44640500                       # number of ReadSharedReq MSHR miss cycles
system.l3cache.demand_mshr_miss_latency::.cpu.inst     36429000                       # number of demand (read+write) MSHR miss cycles
system.l3cache.demand_mshr_miss_latency::.cpu.data     22930500                       # number of demand (read+write) MSHR miss cycles
system.l3cache.demand_mshr_miss_latency::total     59359500                       # number of demand (read+write) MSHR miss cycles
system.l3cache.overall_mshr_miss_latency::.cpu.inst     36429000                       # number of overall MSHR miss cycles
system.l3cache.overall_mshr_miss_latency::.cpu.data     22930500                       # number of overall MSHR miss cycles
system.l3cache.overall_mshr_miss_latency::total     59359500                       # number of overall MSHR miss cycles
system.l3cache.ReadExReq_mshr_miss_rate::.cpu.data            1                       # mshr miss rate for ReadExReq accesses
system.l3cache.ReadExReq_mshr_miss_rate::total            1                       # mshr miss rate for ReadExReq accesses
system.l3cache.ReadSharedReq_mshr_miss_rate::.cpu.inst            1                       # mshr miss rate for ReadSharedReq accesses
system.l3cache.ReadSharedReq_mshr_miss_rate::.cpu.data            1                       # mshr miss rate for ReadSharedReq accesses
system.l3cache.ReadSharedReq_mshr_miss_rate::total            1                       # mshr miss rate for ReadSharedReq accesses
system.l3cache.demand_mshr_miss_rate::.cpu.inst            1                       # mshr miss rate for demand accesses
system.l3cache.demand_mshr_miss_rate::.cpu.data            1                       # mshr miss rate for demand accesses
system.l3cache.demand_mshr_miss_rate::total            1                       # mshr miss rate for demand accesses
system.l3cache.overall_mshr_miss_rate::.cpu.inst            1                       # mshr miss rate for overall accesses
system.l3cache.overall_mshr_miss_rate::.cpu.data            1                       # mshr miss rate for overall accesses
system.l3cache.overall_mshr_miss_rate::total            1                       # mshr miss rate for overall accesses
system.l3cache.ReadExReq_avg_mshr_miss_latency::.cpu.data 108227.941176                       # average ReadExReq mshr miss latency
system.l3cache.ReadExReq_avg_mshr_miss_latency::total 108227.941176                       # average ReadExReq mshr miss latency
system.l3cache.ReadSharedReq_avg_mshr_miss_latency::.cpu.inst 73004.008016                       # average ReadSharedReq mshr miss latency
system.l3cache.ReadSharedReq_avg_mshr_miss_latency::.cpu.data 70183.760684                       # average ReadSharedReq mshr miss latency
system.l3cache.ReadSharedReq_avg_mshr_miss_latency::total 72468.344156                       # average ReadSharedReq mshr miss latency
system.l3cache.demand_avg_mshr_miss_latency::.cpu.inst 73004.008016                       # average overall mshr miss latency
system.l3cache.demand_avg_mshr_miss_latency::.cpu.data 90634.387352                       # average overall mshr miss latency
system.l3cache.demand_avg_mshr_miss_latency::total 78935.505319                       # average overall mshr miss latency
system.l3cache.overall_avg_mshr_miss_latency::.cpu.inst 73004.008016                       # average overall mshr miss latency
system.l3cache.overall_avg_mshr_miss_latency::.cpu.data 90634.387352                       # average overall mshr miss latency
system.l3cache.overall_avg_mshr_miss_latency::total 78935.505319                       # average overall mshr miss latency
system.l3cache.replacements                         0                       # number of replacements
system.membus.snoop_filter.tot_requests           752                       # Total number of requests made to the snoop filter.
system.membus.snoop_filter.hit_single_requests            0                       # Number of requests hitting in the snoop filter with a single holder of the requested data.
system.membus.snoop_filter.hit_multi_requests            0                       # Number of requests hitting in the snoop filter with multiple (>1) holders of the requested data.
system.membus.snoop_filter.tot_snoops               0                       # Total number of snoops made to the snoop filter.
system.membus.snoop_filter.hit_single_snoops            0                       # Number of snoops hitting in the snoop filter with a single holder of the requested data.
system.membus.snoop_filter.hit_multi_snoops            0                       # Number of snoops hitting in the snoop filter with multiple (>1) holders of the requested data.
system.membus.pwrStateResidencyTicks::UNDEFINED   6734089500                       # Cumulative time (in ticks) in various power states
system.membus.trans_dist::ReadResp                616                       # Transaction distribution
system.membus.trans_dist::ReadExReq               136                       # Transaction distribution
system.membus.trans_dist::ReadExResp              136                       # Transaction distribution
system.membus.trans_dist::ReadSharedReq           616                       # Transaction distribution
system.membus.pkt_count_system.l3cache.mem_side::system.mem_ctrl.port         1504                       # Packet count per connected master and slave (bytes)
system.membus.pkt_count_system.l3cache.mem_side::total         1504                       # Packet count per connected master and slave (bytes)
system.membus.pkt_count::total                   1504                       # Packet count per connected master and slave (bytes)
system.membus.pkt_size_system.l3cache.mem_side::system.mem_ctrl.port        48128                       # Cumulative packet size per connected master and slave (bytes)
system.membus.pkt_size_system.l3cache.mem_side::total        48128                       # Cumulative packet size per connected master and slave (bytes)
system.membus.pkt_size::total                   48128                       # Cumulative packet size per connected master and slave (bytes)
system.membus.snoops                                0                       # Total snoops (count)
system.membus.snoopTraffic                          0                       # Total snoop traffic (bytes)
system.membus.snoop_fanout::samples               752                       # Request fanout histogram
system.membus.snoop_fanout::mean                    0                       # Request fanout histogram
system.membus.snoop_fanout::stdev                   0                       # Request fanout histogram
system.membus.snoop_fanout::underflows              0      0.00%      0.00% # Request fanout histogram
system.membus.snoop_fanout::0                     752    100.00%    100.00% # Request fanout histogram
system.membus.snoop_fanout::1                       0      0.00%    100.00% # Request fanout histogram
system.membus.snoop_fanout::overflows               0      0.00%    100.00% # Request fanout histogram
system.membus.snoop_fanout::min_value               0                       # Request fanout histogram
system.membus.snoop_fanout::max_value               0                       # Request fanout histogram
system.membus.snoop_fanout::total                 752                       # Request fanout histogram
system.membus.reqLayer0.occupancy              376000                       # Layer occupancy (ticks)
system.membus.reqLayer0.utilization               0.0                       # Layer utilization (%)
system.membus.respLayer0.occupancy            2039000                       # Layer occupancy (ticks)
system.membus.respLayer0.utilization              0.0                       # Layer utilization (%)

---------- End Simulation Statistics   ----------
